@<TRIPOS>MOLECULE
GBH
   53    54     1     0     0
SMALL
bcc


@<TRIPOS>ATOM
      1 C1           0.0000     0.0000     0.0000 c3         1 GBH       0.380900
      2 O1          -0.4770     0.0560    -1.3460 os         1 GBH      -0.371600
      3 C2           1.5310     0.0000     0.0000 c3         1 GBH       0.147100
      4 O2           2.0080    -1.1690    -0.6710 oh         1 GBH      -0.566800
      5 C3           2.0330     0.0000     1.4470 c3         1 GBH       0.147100
      6 O3           3.4600     0.0750     1.4570 oh         1 GBH      -0.587800
      7 C4           1.4520     1.2140     2.1770 c3         1 GBH       0.136100
      8 O4           1.8560     1.1860     3.5480 oh         1 GBH      -0.586800
      9 C5          -0.0760     1.1690     2.0930 c3         1 GBH       0.176100
     10 O5          -0.4760     1.1380     0.7210 os         1 GBH      -0.417600
     11 C6          -0.6620     2.4090     2.7680 c3         1 GBH       0.224400
     12 O6          -2.0870     2.3100     2.7930 oh         1 GBH      -0.581800
     13 OAA          0.5920    -5.7900    -8.4620 o          1 GBH      -0.660867
     14 OAB         -1.0660    -5.4750   -10.0600 o          1 GBH      -0.660867
     15 OAG         -1.6220    -6.8840    -8.2970 o          1 GBH      -0.660867
     16 CAI         -1.8960    -0.0530    -1.4650 c3         1 GBH       0.205400
     17 CAJ         -2.2920     0.0200    -2.9420 c3         1 GBH       0.147800
     18 CAK         -2.5390    -2.3550    -3.3510 c3         1 GBH       0.150800
     19 CAL         -1.6960    -0.9070    -5.0990 c3         1 GBH       0.150800
     20 CAM         -1.8990    -3.5620    -4.0430 c3         1 GBH       0.151800
     21 CAN         -1.0570    -2.1130    -5.7900 c3         1 GBH       0.151800
     22 CAO         -1.3040    -4.4880    -6.2010 c3         1 GBH       0.186800
     23 CAP         -1.4900    -4.3000    -7.7070 c3         1 GBH      -0.063600
     24 NAX         -1.7530    -1.1500    -3.6500 n3         1 GBH      -0.534600
     25 NAY         -1.8420    -3.3190    -5.4910 n3         1 GBH      -0.555600
     26 SAZ         -0.8240    -5.7420    -8.5820 s6         1 GBH       0.956800
     27 H1          -0.3590    -0.9040     0.4780 h2         1 GBH       0.004700
     28 H2           1.8910     0.8870    -0.5070 h1         1 GBH       0.026700
     29 HO2          2.6790    -0.9250    -1.2870 ho         1 GBH       0.402000
     30 H3           1.7090    -0.9080     1.9420 h1         1 GBH       0.024700
     31 HO3          3.8100    -0.6510     1.9470 ho         1 GBH       0.399000
     32 H4           1.8110     2.1220     1.7080 h1         1 GBH       0.022700
     33 HO4          2.5580     1.8010     3.6810 ho         1 GBH       0.396000
     34 H5          -0.4360     0.2770     2.5920 h1         1 GBH       0.027700
     35 H6          -0.3710     3.2930     2.2140 h1         1 GBH      -0.004300
     36 H6A         -0.2880     2.4790     3.7820 h1         1 GBH      -0.004300
     37 HO6         -2.4400     2.9850     3.3490 ho         1 GBH       0.384000
     38 HAI         -2.2220    -0.9990    -1.0500 h1         1 GBH      -0.000800
     39 HAIA        -2.3670     0.7600    -0.9250 h1         1 GBH      -0.000800
     40 HAJ         -3.3720     0.0270    -3.0260 h1         1 GBH       0.012700
     41 HAJA        -1.8890     0.9250    -3.3800 h1         1 GBH       0.012700
     42 HAK         -3.5500    -2.2250    -3.7150 h1         1 GBH       0.007200
     43 HAKA        -2.5520    -2.5190    -2.2800 h1         1 GBH       0.007200
     44 HAL         -1.1010    -0.0230    -5.2930 h1         1 GBH       0.007200
     45 HALA        -2.7010    -0.7640    -5.4790 h1         1 GBH       0.007200
     46 HAM         -2.4950    -4.4450    -3.8490 h1         1 GBH       0.017450
     47 HAMA        -0.8950    -3.7050    -3.6620 h1         1 GBH       0.017450
     48 HAN         -0.0450    -2.2430    -5.4250 h1         1 GBH       0.017450
     49 HANA        -1.0420    -1.9490    -6.8610 h1         1 GBH       0.017450
     50 HAO         -0.2490    -4.5910    -5.9770 h1         1 GBH       0.014700
     51 HAOA        -1.8300    -5.3790    -5.8800 h1         1 GBH       0.014700
     52 HAP         -2.5450    -4.1970    -7.9310 h1         1 GBH       0.053700
     53 HAPA        -0.9640    -3.4090    -8.0280 h1         1 GBH       0.053700
@<TRIPOS>BOND
     1     1     2 1   
     2     1     3 1   
     3     1    10 1   
     4     1    27 1   
     5     2    16 1   
     6     3     4 1   
     7     3     5 1   
     8     3    28 1   
     9     4    29 1   
    10     5     6 1   
    11     5     7 1   
    12     5    30 1   
    13     6    31 1   
    14     7     8 1   
    15     7     9 1   
    16     7    32 1   
    17     8    33 1   
    18     9    10 1   
    19     9    11 1   
    20     9    34 1   
    21    11    12 1   
    22    11    35 1   
    23    11    36 1   
    24    12    37 1   
    25    13    26 1   
    26    14    26 1   
    27    15    26 1   
    28    16    17 1   
    29    16    38 1   
    30    16    39 1   
    31    17    24 1   
    32    17    40 1   
    33    17    41 1   
    34    18    20 1   
    35    18    24 1   
    36    18    42 1   
    37    18    43 1   
    38    19    21 1   
    39    19    24 1   
    40    19    44 1   
    41    19    45 1   
    42    20    25 1   
    43    20    46 1   
    44    20    47 1   
    45    21    25 1   
    46    21    48 1   
    47    21    49 1   
    48    22    23 1   
    49    22    25 1   
    50    22    50 1   
    51    22    51 1   
    52    23    26 1   
    53    23    52 1   
    54    23    53 1   
@<TRIPOS>SUBSTRUCTURE
     1 GBH         1 TEMP              0 ****  ****    0 ROOT
