@<TRIPOS>MOLECULE
GBI
   49    49     1     0     0
SMALL
bcc


@<TRIPOS>ATOM
      1 N1           0.0000     0.0000     0.0000 nz         1 GBI       0.047400
      2 CA1          1.4680     0.0000     0.0000 c3         1 GBI      -0.202500
      3 C1           1.9700     0.0000     1.4210 c          1 GBI       0.960600
      4 O11          3.1420    -0.5810     1.7190 o          1 GBI      -0.819800
      5 O12          1.3160     0.5240     2.2920 o          1 GBI      -0.819800
      6 CB1          1.9780     1.2480    -0.7220 c3         1 GBI      -0.007400
      7 CG1          1.4690     1.2470    -2.1650 c3         1 GBI      -0.122400
      8 CD1          1.9720     2.4760    -2.8760 c          1 GBI       0.581100
      9 OE1          2.6680     3.2750    -2.2870 o          1 GBI      -0.620100
     10 N2           1.6470     2.6880    -4.1670 ns         1 GBI      -0.189900
     11 CA2          2.1350     3.8830    -4.8580 c3         1 GBI      -0.038300
     12 C2           1.1430     5.0040    -4.6860 c          1 GBI       0.531100
     13 O2           1.5250     6.1550    -4.6710 o          1 GBI      -0.660100
     14 CB2          2.3060     3.5770    -6.3470 c3         1 GBI       0.075700
     15 SG2          3.5010     2.2290    -6.5530 ss         1 GBI      -0.399200
     16 N3          -0.1690     4.7270    -4.5490 ns         1 GBI      -0.147900
     17 CA3         -1.1340     5.8170    -4.3820 c3         1 GBI      -0.073000
     18 C3          -2.5200     5.2440    -4.2500 c          1 GBI       0.973600
     19 O31         -3.5730     6.0620    -4.0870 o          1 GBI      -0.893800
     20 O32         -2.6860     4.0480    -4.2920 o          1 GBI      -0.893800
     21 C'           3.5040     2.0850    -8.3610 c3         1 GBI       0.140000
     22 C1'          4.4550     0.9930    -8.7770 ca         1 GBI      -0.067300
     23 C2'          5.7790     1.2900    -9.0350 ca         1 GBI      -0.068000
     24 C3'          6.6530     0.2870    -9.4120 ca         1 GBI       0.206900
     25 I3'          8.6620     0.7350    -9.7960 i          1 GBI      -0.301900
     26 C4'          6.1980    -1.0130    -9.5400 ca         1 GBI      -0.086000
     27 C5'          4.8720    -1.3100    -9.2870 ca         1 GBI      -0.096000
     28 C6'          4.0010    -0.3080    -8.9060 ca         1 GBI      -0.083000
     29 HN11        -0.3340    -0.0320     0.9430 hn         1 GBI       0.218133
     30 HN12        -0.3340    -0.8010    -0.4990 hn         1 GBI       0.218133
     31 HA1          1.8300    -0.8850    -0.5100 hx         1 GBI       0.080700
     32 HB11         3.0620     1.2480    -0.7220 hc         1 GBI       0.070200
     33 HB12         1.6170     2.1330    -0.2120 hc         1 GBI       0.070200
     34 HG11         1.8300     0.3620    -2.6740 hc         1 GBI       0.019200
     35 HG12         0.3860     1.2480    -2.1650 hc         1 GBI       0.019200
     36 HN2          1.0710     2.0290    -4.6520 hn         1 GBI       0.180500
     37 HA2          3.0900     4.1790    -4.4380 h1         1 GBI       0.094700
     38 HB21         2.6670     4.4610    -6.8590 h1         1 GBI       0.050200
     39 HB22         1.3530     3.2800    -6.7670 h1         1 GBI       0.050200
     40 HN3         -0.4880     3.7800    -4.6040 hn         1 GBI       0.185500
     41 HA31        -0.8900     6.3810    -3.4900 h1         1 GBI       0.029200
     42 HA32        -1.0930     6.4700    -5.2450 h1         1 GBI       0.029200
     43 H'1          3.8200     3.0250    -8.7980 h1         1 GBI       0.040700
     44 H'2          2.5050     1.8450    -8.7060 h1         1 GBI       0.040700
     45 H2'          6.1350     2.3080    -8.9350 ha         1 GBI       0.127000
     46 H4'          6.8820    -1.7990    -9.8370 ha         1 GBI       0.115000
     47 H5'          4.5160    -2.3280    -9.3880 ha         1 GBI       0.106000
     48 H6'          2.9620    -0.5410    -8.7080 ha         1 GBI       0.112000
     49 H13         -0.3340     0.8310    -0.4470 hn         1 GBI       0.218133
@<TRIPOS>BOND
     1     1     2 1   
     2     1    29 1   
     3     1    30 1   
     4     1    49 1   
     5     2     3 1   
     6     2     6 1   
     7     2    31 1   
     8     3     4 1   
     9     3     5 1   
    10     6     7 1   
    11     6    32 1   
    12     6    33 1   
    13     7     8 1   
    14     7    34 1   
    15     7    35 1   
    16     8     9 2   
    17     8    10 1   
    18    10    11 1   
    19    10    36 1   
    20    11    12 1   
    21    11    14 1   
    22    11    37 1   
    23    12    13 2   
    24    12    16 1   
    25    14    15 1   
    26    14    38 1   
    27    14    39 1   
    28    15    21 1   
    29    16    17 1   
    30    16    40 1   
    31    17    18 1   
    32    17    41 1   
    33    17    42 1   
    34    18    19 1   
    35    18    20 1   
    36    21    22 1   
    37    21    43 1   
    38    21    44 1   
    39    22    23 ar  
    40    22    28 ar  
    41    23    24 ar  
    42    23    45 1   
    43    24    25 1   
    44    24    26 ar  
    45    26    27 ar  
    46    26    46 1   
    47    27    28 ar  
    48    27    47 1   
    49    28    48 1   
@<TRIPOS>SUBSTRUCTURE
     1 GBI         1 TEMP              0 ****  ****    0 ROOT
