@<TRIPOS>MOLECULE
GBJ
   44    47     1     0     0
SMALL
bcc


@<TRIPOS>ATOM
      1 C1          0.1120    0.6290    0.2340 c3        1 GBJ     -0.100600
      2 C2          1.4500   -0.0810    0.0270 c3        1 GBJ      0.198000
      3 C3          2.1430   -0.2670    1.3370 c2        1 GBJ     -0.222200
      4 C4          3.4000    0.1410    1.5580 ce        1 GBJ     -0.058200
      5 C5          4.1330    0.8050    0.5020 ca        1 GBJ     -0.165800
      6 C6          3.4700    1.0680   -0.7110 ca        1 GBJ      0.180100
      7 C7          4.1250    1.7220   -1.7720 ca        1 GBJ     -0.195000
      8 C8          5.4460    2.1120   -1.6110 ca        1 GBJ     -0.059000
      9 C9          6.1400    1.8680   -0.4190 ca        1 GBJ     -0.188300
     10 C10         5.4770    1.2110    0.6290 ca        1 GBJ      0.179100
     11 O1          6.0690    0.9540    1.8500 os        1 GBJ     -0.324900
     12 C11         7.4950    1.0710    1.8770 c3        1 GBJ      0.135400
     13 C12         7.9800    2.3390    1.1820 c3        1 GBJ     -0.042400
     14 C13         7.5550    2.3000   -0.2830 c3        1 GBJ     -0.018100
     15 C14         9.4570    2.4870    1.3230 ca        1 GBJ     -0.139300
     16 C15        10.3330    1.5170    0.8210 ca        1 GBJ     -0.064000
     17 C16        11.7120    1.6410    0.9420 ca        1 GBJ     -0.189000
     18 C17        12.2400    2.7720    1.5850 ca        1 GBJ      0.165100
     19 C18        11.4000    3.7650    2.1010 ca        1 GBJ     -0.301000
     20 C19        10.0130    3.6120    1.9650 ca        1 GBJ      0.171100
     21 O2          9.1390    4.5560    2.4540 oh        1 GBJ     -0.494100
     22 O3         13.6090    2.8440    1.6770 oh        1 GBJ     -0.492100
     23 O4          2.1560    0.7440   -0.9400 os        1 GBJ     -0.327900
     24 C20         1.2330   -1.4360   -0.6450 c3        1 GBJ     -0.100600
     25 H1          0.2710    1.6060    0.7480 hc        1 GBJ      0.047533
     26 H2         -0.3720    0.8180   -0.7540 hc        1 GBJ      0.047533
     27 H3         -0.5550   -0.0120    0.8560 hc        1 GBJ      0.047533
     28 H4          1.5450   -0.7740    2.1070 ha        1 GBJ      0.138000
     29 H6          3.9150   -0.0020    2.5200 ha        1 GBJ      0.151000
     30 H8          3.5800    1.9150   -2.7060 ha        1 GBJ      0.150000
     31 H9          5.9630    2.6280   -2.4340 ha        1 GBJ      0.134000
     32 H10         7.7300    1.0880    2.9750 h1        1 GBJ      0.059200
     33 H11         7.9380    0.1570    1.4000 h1        1 GBJ      0.059200
     34 H12         7.4670    3.2170    1.6720 hc        1 GBJ      0.092700
     35 H13         8.2150    1.5910   -0.8540 hc        1 GBJ      0.054200
     36 H14         7.6910    3.3180   -0.7340 hc        1 GBJ      0.054200
     37 H15         9.9170    0.6300    0.3150 ha        1 GBJ      0.141000
     38 H16        12.3920    0.8750    0.5450 ha        1 GBJ      0.155000
     39 H17        11.8170    4.6480    2.6030 ha        1 GBJ      0.137000
     40 H18         9.6590    5.2650    2.8610 ho        1 GBJ      0.422000
     41 H19        13.8390    3.6650    2.1360 ho        1 GBJ      0.421000
     42 H20         0.7270   -1.2920   -1.6290 hc        1 GBJ      0.047533
     43 H21         0.5980   -2.0790    0.0070 hc        1 GBJ      0.047533
     44 H22         2.2120   -1.9410   -0.8180 hc        1 GBJ      0.047533
@<TRIPOS>BOND
     1    1    2 1   
     2    1   25 1   
     3    1   26 1   
     4    1   27 1   
     5    2    3 1   
     6    2   23 1   
     7    2   24 1   
     8    3    4 2   
     9    3   28 1   
    10    4    5 1   
    11    4   29 1   
    12    5    6 ar  
    13    5   10 ar  
    14    6    7 ar  
    15    6   23 1   
    16    7    8 ar  
    17    7   30 1   
    18    8    9 ar  
    19    8   31 1   
    20    9   10 ar  
    21    9   14 1   
    22   10   11 1   
    23   11   12 1   
    24   12   13 1   
    25   12   32 1   
    26   12   33 1   
    27   13   14 1   
    28   13   15 1   
    29   13   34 1   
    30   14   35 1   
    31   14   36 1   
    32   15   16 ar  
    33   15   20 ar  
    34   16   17 ar  
    35   16   37 1   
    36   17   18 ar  
    37   17   38 1   
    38   18   19 ar  
    39   18   22 1   
    40   19   20 ar  
    41   19   39 1   
    42   20   21 1   
    43   21   40 1   
    44   22   41 1   
    45   24   42 1   
    46   24   43 1   
    47   24   44 1   
@<TRIPOS>SUBSTRUCTURE
     1 GBJ         1 TEMP              0 ****  ****    0 ROOT
