@<TRIPOS>MOLECULE
molecule
   44    47     1     0     0
SMALL
bcc


@<TRIPOS>ATOM
      1 C1           0.0000     0.0000     0.0000 c3         1 GBJ      -0.095600
      2 C2           1.5300     0.0000     0.0000 c3         1 GBJ       0.195000
      3 C3           2.0270     0.0000     1.4220 c2         1 GBJ      -0.223200
      4 C4           3.2030     0.5520     1.7170 ce         1 GBJ      -0.066200
      5 C5           3.9790     1.1630     0.6180 ca         1 GBJ      -0.167800
      6 C6           3.3220     1.4470    -0.5850 ca         1 GBJ       0.179100
      7 C7           4.0250     2.0180    -1.6300 ca         1 GBJ      -0.187000
      8 C8           5.3690     2.3030    -1.4790 ca         1 GBJ      -0.062000
      9 C9           6.0270     2.0260    -0.2900 ca         1 GBJ      -0.194300
     10 C10          5.3390     1.4570     0.7660 ca         1 GBJ       0.190100
     11 O1           5.9430     1.1810     1.9500 os         1 GBJ      -0.323900
     12 C11          7.3700     1.1340     1.9780 c3         1 GBJ       0.150400
     13 C12          7.9080     2.3960     1.2900 c3         1 GBJ      -0.059400
     14 C13          7.4950     2.3540    -0.1820 c3         1 GBJ      -0.017100
     15 C14          9.4110     2.4300     1.3960 ca         1 GBJ      -0.117300
     16 C15         10.1650     1.4080     0.8490 ca         1 GBJ      -0.086000
     17 C16         11.5430     1.4360     0.9440 ca         1 GBJ      -0.180000
     18 C17         12.1740     2.4920     1.5890 ca         1 GBJ       0.140100
     19 C18         11.4200     3.5170     2.1370 ca         1 GBJ      -0.234000
     20 C19         10.0380     3.4900     2.0360 ca         1 GBJ       0.150100
     21 O2           9.2950     4.4960     2.5680 oh         1 GBJ      -0.499100
     22 O3          13.5290     2.5190     1.6820 oh         1 GBJ      -0.521100
     23 O4           2.0020     1.1530    -0.6970 os         1 GBJ      -0.318900
     24 C20          2.0340    -1.2580    -0.7090 c3         1 GBJ      -0.095600
     25 H1          -0.3610     0.8680     0.5390 hc         1 GBJ       0.046867
     26 H2          -0.3610     0.0330    -1.0210 hc         1 GBJ       0.046867
     27 H3          -0.3610    -0.9000     0.4820 hc         1 GBJ       0.046867
     28 H4           1.4280    -0.4490     2.2050 ha         1 GBJ       0.136000
     29 H6           3.4530     0.7760     2.7470 ha         1 GBJ       0.148000
     30 H8           3.5040     2.3230    -2.5300 ha         1 GBJ       0.145000
     31 H9           5.9160     2.7480    -2.3010 ha         1 GBJ       0.134000
     32 H10          7.7120     1.1050     3.0050 h1         1 GBJ       0.059700
     33 H11          7.7150     0.2550     1.4470 h1         1 GBJ       0.059700
     34 H12          7.4850     3.2740     1.7610 hc         1 GBJ       0.093700
     35 H13          8.0710     1.5930    -0.6950 hc         1 GBJ       0.055200
     36 H14          7.6800     3.3200    -0.6350 hc         1 GBJ       0.055200
     37 H15          9.6750     0.5830     0.3460 ha         1 GBJ       0.141000
     38 H16         12.1320     0.6350     0.5150 ha         1 GBJ       0.144000
     39 H17         11.9100     4.3430     2.6380 ha         1 GBJ       0.144000
     40 H18          9.7350     4.8450     3.3250 ho         1 GBJ       0.425000
     41 H19         13.8870     2.9730     0.9370 ho         1 GBJ       0.424000
     42 H20          3.1160    -1.2870    -0.6680 hc         1 GBJ       0.046867
     43 H21          1.6310    -2.1360    -0.2180 hc         1 GBJ       0.046867
     44 H22          1.7130    -1.2440    -1.7440 hc         1 GBJ       0.046867
@<TRIPOS>BOND
     1    24     2 1
     2     1     2 1
     3     2     3 1
     4     2    23 1
     5     3     4 2
     6    23     6 1
     7     6     7 ar
     8     6     5 ar
     9     4     5 1
    10     7     8 ar
    11     5    10 ar
    12     8     9 ar
    13    10     9 ar
    14    10    11 1
    15     9    14 1
    16    11    12 1
    17    12    13 1
    18    14    13 1
    19    13    15 1
    20    15    16 ar
    21    15    20 ar
    22    21    20 1
    23    16    17 ar
    24    20    19 ar
    25    17    18 ar
    26    19    18 ar
    27    18    22 1
    28     1    25 1
    29     1    26 1
    30     1    27 1
    31     3    28 1
    32     4    29 1
    33     7    30 1
    34     8    31 1
    35    12    32 1
    36    12    33 1
    37    13    34 1
    38    14    35 1
    39    14    36 1
    40    16    37 1
    41    17    38 1
    42    19    39 1
    43    21    40 1
    44    22    41 1
    45    24    42 1
    46    24    43 1
    47    24    44 1
@<TRIPOS>SUBSTRUCTURE
     1 GBJ         1 TEMP              0 ****  ****    0 ROOT
