@<TRIPOS>MOLECULE
GBK
   46    48     1     0     0
SMALL
bcc


@<TRIPOS>ATOM
      1 C10          0.0000     0.0000     0.0000 c3         1 GBK      -0.063400
      2 C13          2.0370     0.0000     1.4440 c3         1 GBK       0.187800
      3 C17          3.5440    -0.0200     1.4490 ca         1 GBK      -0.091300
      4 C20          6.3080    -0.0560     1.4560 ca         1 GBK      -0.103000
      5 C21          5.6320     1.1330     1.6570 ca         1 GBK      -0.111000
      6 C22          4.2500     1.1510     1.6530 ca         1 GBK      -0.079500
      7 C01         -0.4060    -4.3360    -2.9490 c3         1 GBK       0.243700
      8 C02          1.7280    -3.2930    -3.0490 ca         1 GBK       0.153100
      9 C03          2.1970    -4.4420    -3.6690 ca         1 GBK      -0.210000
     10 C04          3.5210    -4.5250    -4.0550 ca         1 GBK      -0.058000
     11 C05          4.3780    -3.4660    -3.8230 ca         1 GBK      -0.145000
     12 C06          3.9140    -2.3200    -3.2040 ca         1 GBK      -0.043000
     13 C07          2.5910    -2.2310    -2.8170 ca         1 GBK      -0.126300
     14 C08          2.0840    -0.9810    -2.1430 c3         1 GBK       0.206100
     15 C09          1.5310     0.0000     0.0000 c3         1 GBK       0.128500
     16 C11         -0.5020    -1.2220     0.7740 c3         1 GBK      -0.032400
     17 C12          0.0620    -1.1870     2.1960 c3         1 GBK       0.146800
     18 N14          2.0210    -1.1990    -0.6920 n7         1 GBK      -0.583200
     19 N15          1.5300    -1.1880     2.1410 n7         1 GBK      -0.574200
     20 C18          4.2200    -1.2100     1.2540 ca         1 GBK      -0.079500
     21 C19          5.6020    -1.2280     1.2580 ca         1 GBK      -0.111000
     22 H1          -0.3610     0.9030     0.4780 hc         1 GBK       0.020700
     23 H2          -0.3610    -0.0450    -1.0200 hc         1 GBK       0.020700
     24 H3           1.6820     0.8900     1.9490 h1         1 GBK       0.007700
     25 H4           7.3910    -0.0700     1.4590 ha         1 GBK       0.098000
     26 H5           6.1860     2.0510     1.8150 ha         1 GBK       0.100000
     27 H6           3.7200     2.0830     1.8100 ha         1 GBK       0.115000
     28 H7          -0.0410    -5.1950    -2.4010 h1         1 GBK      -0.001967
     29 H8          -0.3850    -4.5490    -4.0110 h1         1 GBK      -0.001967
     30 H9          -1.4230    -4.1190    -2.6450 h1         1 GBK      -0.001967
     31 H10          1.5260    -5.2720    -3.8520 ha         1 GBK       0.119000
     32 H11          3.8880    -5.4220    -4.5400 ha         1 GBK       0.099000
     33 H12          5.4160    -3.5340    -4.1260 ha         1 GBK       0.105000
     34 H13          4.5870    -1.4910    -3.0230 ha         1 GBK       0.110000
     35 H14          2.7560    -0.1590    -2.3560 h1         1 GBK       0.011700
     36 H15          1.0950    -0.7450    -2.5160 h1         1 GBK       0.011700
     37 H16          1.8900     0.8870    -0.5070 h1         1 GBK       0.036700
     38 H17         -1.5840    -1.2030     0.8150 hc         1 GBK       0.024200
     39 H18         -0.1690    -2.1250     0.2760 hc         1 GBK       0.024200
     40 H19         -0.2780    -0.2880     2.6960 h1         1 GBK       0.004700
     41 H20         -0.2780    -2.0600     2.7400 h1         1 GBK       0.004700
     42 H21          1.4130    -1.9700    -0.4960 hn         1 GBK       0.282800
     43 H23          1.8990    -1.2130     3.0710 hn         1 GBK       0.256800
     44 H25          3.6670    -2.1280     1.0980 ha         1 GBK       0.115000
     45 H26          6.1320    -2.1600     1.1030 ha         1 GBK       0.100000
     46 O16          0.4250    -3.2060    -2.6740 os         1 GBK      -0.314900
@<TRIPOS>BOND
     1     1    15 1   
     2     1    16 1   
     3     1    22 1   
     4     1    23 1   
     5     2     3 1   
     6     2    15 1   
     7     2    19 1   
     8     2    24 1   
     9     3     6 ar  
    10     3    20 ar  
    11     4     5 ar  
    12     4    21 ar  
    13     4    25 1   
    14     5     6 ar  
    15     5    26 1   
    16     6    27 1   
    17     7    28 1   
    18     7    29 1   
    19     7    30 1   
    20     7    46 1   
    21     8     9 ar  
    22     8    13 ar  
    23     8    46 1   
    24     9    10 ar  
    25     9    31 1   
    26    10    11 ar  
    27    10    32 1   
    28    11    12 ar  
    29    11    33 1   
    30    12    13 ar  
    31    12    34 1   
    32    13    14 1   
    33    14    18 1   
    34    14    35 1   
    35    14    36 1   
    36    15    18 1   
    37    15    37 1   
    38    16    17 1   
    39    16    38 1   
    40    16    39 1   
    41    17    19 1   
    42    17    40 1   
    43    17    41 1   
    44    18    42 1   
    45    19    43 1   
    46    20    21 ar  
    47    20    44 1   
    48    21    45 1   
@<TRIPOS>SUBSTRUCTURE
     1 GBK         1 TEMP              0 ****  ****    0 ROOT
