@<TRIPOS>MOLECULE
GBL
   12    12     1     0     0
SMALL
bcc


@<TRIPOS>ATOM
      1 CA         -0.0190   -0.0570   -0.0070 c3        1 GBL     -0.172400
      2 C           1.4820    0.0480   -0.0320 c         1 GBL      0.713600
      3 O           2.2980   -0.0670   -0.9370 o         1 GBL     -0.564500
      4 CB         -0.3990    0.1960    1.4470 c3        1 GBL     -0.115400
      5 CG          0.9260    0.4340    2.1790 c3        1 GBL      0.119400
      6 OD          1.9950    0.3270    1.2200 os        1 GBL     -0.412900
      7 HAC1       -0.3340   -1.0720   -0.3550 hc        1 GBL      0.088700
      8 HAC2       -0.4640    0.7030   -0.6970 hc        1 GBL      0.088700
      9 HBC1       -0.9360   -0.6820    1.8810 hc        1 GBL      0.063700
     10 HBC2       -1.0660    1.0870    1.5400 hc        1 GBL      0.063700
     11 HGC1        1.1250   -0.3370    2.9650 h1        1 GBL      0.063700
     12 HGC2        0.9940    1.4610    2.6180 h1        1 GBL      0.063700
@<TRIPOS>BOND
     1    1    2 1   
     2    1    4 1   
     3    1    7 1   
     4    1    8 1   
     5    2    3 2   
     6    2    6 1   
     7    4    5 1   
     8    4    9 1   
     9    4   10 1   
    10    5    6 1   
    11    5   11 1   
    12    5   12 1   
@<TRIPOS>SUBSTRUCTURE
     1 GBL         1 TEMP              0 ****  ****    0 ROOT
