@<TRIPOS>MOLECULE
molecule
   12    12     1     0     0
SMALL
bcc


@<TRIPOS>ATOM
      1 CA           0.0000     0.0000     0.0000 c3         1 GBL      -0.203400
      2 C            1.5130     0.0000     0.0000 c          1 GBL       0.733600
      3 O            2.2080    -0.0050    -0.9890 o          1 GBL      -0.563500
      4 CB          -0.3960     0.0680     1.4920 c3         1 GBL      -0.122400
      5 CG           0.9290     0.4990     2.1600 c3         1 GBL       0.134400
      6 OD           1.9670     0.0000     1.2610 os         1 GBL      -0.404900
      7 HAC1        -0.3750     0.8680    -0.5280 hc         1 GBL       0.082700
      8 HAC2        -0.3750    -0.9130    -0.4470 hc         1 GBL       0.082700
      9 HBC1        -0.7090    -0.9050     1.8510 hc         1 GBL       0.064200
     10 HBC2        -1.1660     0.8130     1.6510 hc         1 GBL       0.064200
     11 HGC1         0.9810     1.5780     2.2340 h1         1 GBL       0.065700
     12 HGC2         1.0250     0.0410     3.1370 h1         1 GBL       0.065700
@<TRIPOS>BOND
     1     1     2 1
     2     1     4 1
     3     1     7 1
     4     1     8 1
     5     2     3 2
     6     2     6 1
     7     4     5 1
     8     4     9 1
     9     4    10 1
    10     5     6 1
    11     5    11 1
    12     5    12 1
@<TRIPOS>SUBSTRUCTURE
     1 GBL         1 TEMP              0 ****  ****    0 ROOT
