@<TRIPOS>MOLECULE
GBM
   61    63     1     0     0
SMALL
bcc


@<TRIPOS>ATOM
      1 O3           0.0000     0.0000     0.0000 o          1 GBM      -0.742100
      2 O4           0.1730    -1.1610    -2.7010 o          1 GBM      -0.531300
      3 O5           2.0170    -0.2810    -3.6750 o          1 GBM      -0.531300
      4 O6          -0.1140     8.5870    -0.6270 o          1 GBM      -0.538100
      5 Cl1          5.1080     8.1260    -2.4500 cl         1 GBM      -0.027400
      6 S2           1.0620    -0.0010    -2.6010 sy         1 GBM       0.909900
      7 O7          -0.4080     9.3280    -4.3410 os         1 GBM      -0.327900
      8 N8           1.8900     0.0000     1.1680 ns         1 GBM      -0.425900
      9 N9           1.8900    -0.0010    -1.1670 ns         1 GBM      -0.305300
     10 N10         -1.2550     7.4470    -2.2480 ns         1 GBM      -0.368900
     11 C11          1.1570     0.0000     2.4360 c3         1 GBM       0.061700
     12 C12          2.0350     0.6100     3.5310 c3         1 GBM      -0.026400
     13 C13          0.7940    -1.4370     2.8160 c3         1 GBM      -0.026400
     14 C14          1.2690     0.6100     4.8560 c3         1 GBM      -0.017900
     15 C15          0.0290    -1.4360     4.1400 c3         1 GBM      -0.017900
     16 C16          0.9050    -0.8260     5.2350 c3         1 GBM      -0.024400
     17 C17          1.2160     0.0000     0.0000 c          1 GBM       0.849100
     18 C18          0.1850     1.5240    -2.6980 ca         1 GBM      -0.125500
     19 C19         -1.1920     3.9170    -2.8500 ca         1 GBM      -0.025300
     20 C20         -1.9560     5.2140    -2.9110 c3         1 GBM      -0.005100
     21 C21         -1.0970     1.6180    -2.1880 ca         1 GBM       0.010500
     22 C22          0.7810     2.6280    -3.2780 ca         1 GBM       0.010500
     23 C23         -1.7850     2.8140    -2.2640 ca         1 GBM      -0.128500
     24 C24          0.0920     3.8250    -3.3540 ca         1 GBM      -0.128500
     25 C25         -1.5300     6.1120    -1.7510 c3         1 GBM       0.093000
     26 C26         -0.1140     8.1890    -1.7420 c          1 GBM       0.682700
     27 C27          1.0810     8.4640    -2.6520 ca         1 GBM      -0.175600
     28 C28          0.8800     8.9700    -3.9250 ca         1 GBM       0.153100
     29 C29          2.3670     8.2080    -2.2030 ca         1 GBM      -0.032000
     30 C30          1.9660     9.2200    -4.7510 ca         1 GBM      -0.158000
     31 C31          3.4520     8.4580    -3.0280 ca         1 GBM      -0.058600
     32 C32          3.2510     8.9640    -4.3020 ca         1 GBM      -0.053000
     33 C33         -0.4820    10.5970    -4.9290 c3         1 GBM       0.247700
     34 H1           1.4230     0.2540     0.3200 hn         1 GBM       0.154500
     35 H2           2.8910    -0.0130    -1.1670 hn         1 GBM       0.247500
     36 H3          -1.8840     7.8770    -2.8970 hn         1 GBM       0.205500
     37 H4           0.2510     0.5850     2.3340 h1         1 GBM       0.040700
     38 H5           2.9880     0.0960     3.5440 hc         1 GBM       0.024700
     39 H6           2.1970     1.6580     3.3070 hc         1 GBM       0.024700
     40 H7           1.6920    -2.0420     2.7970 hc         1 GBM       0.024700
     41 H8           0.0880    -1.8230     2.0900 hc         1 GBM       0.024700
     42 H9           0.4400     1.3030     4.7820 hc         1 GBM       0.016200
     43 H10          1.9360     0.9350     5.6460 hc         1 GBM       0.016200
     44 H11         -0.9340    -0.9640     3.9890 hc         1 GBM       0.016200
     45 H12         -0.1220    -2.4610     4.4580 hc         1 GBM       0.016200
     46 H13          1.8140    -1.3670     5.4690 hc         1 GBM       0.016200
     47 H14          0.2660    -0.8060     6.1100 hc         1 GBM       0.016200
     48 H15         -3.0180     5.0110    -2.8400 hc         1 GBM       0.030700
     49 H16         -1.7460     5.7130    -3.8500 hc         1 GBM       0.030700
     50 H17         -1.5990     0.7330    -1.8170 ha         1 GBM       0.129500
     51 H18          1.7470     2.5330    -3.7580 ha         1 GBM       0.129500
     52 H19         -2.8200     2.8600    -1.9460 ha         1 GBM       0.118000
     53 H20          0.5260     4.6620    -3.8890 ha         1 GBM       0.118000
     54 H21         -2.3250     6.1560    -1.0170 h1         1 GBM       0.012200
     55 H22         -0.6360     5.7070    -1.2900 h1         1 GBM       0.012200
     56 H23          2.5270     7.8530    -1.1920 ha         1 GBM       0.125000
     57 H24          1.8110     9.6510    -5.7320 ha         1 GBM       0.123000
     58 H25          4.0990     9.1590    -4.9470 ha         1 GBM       0.117000
     59 H26         -0.2470    10.5210    -5.9840 h1         1 GBM      -0.003967
     60 H27         -1.4830    10.9920    -4.8100 h1         1 GBM      -0.003967
     61 H28          0.2270    11.2600    -4.4480 h1         1 GBM      -0.003967
@<TRIPOS>BOND
     1     1    17 2   
     2     2     6 2   
     3     3     6 2   
     4     4    26 2   
     5     5    31 1   
     6     6     9 1   
     7     6    18 1   
     8     7    28 1   
     9     7    33 1   
    10     8    11 1   
    11     8    17 1   
    12     8    34 1   
    13     9    17 1   
    14     9    35 1   
    15    10    25 1   
    16    10    26 1   
    17    10    36 1   
    18    11    12 1   
    19    11    13 1   
    20    11    37 1   
    21    12    14 1   
    22    12    38 1   
    23    12    39 1   
    24    13    15 1   
    25    13    40 1   
    26    13    41 1   
    27    14    16 1   
    28    14    42 1   
    29    14    43 1   
    30    15    16 1   
    31    15    44 1   
    32    15    45 1   
    33    16    46 1   
    34    16    47 1   
    35    18    21 ar  
    36    18    22 ar  
    37    19    20 1   
    38    19    23 ar  
    39    19    24 ar  
    40    20    25 1   
    41    20    48 1   
    42    20    49 1   
    43    21    23 ar  
    44    21    50 1   
    45    22    24 ar  
    46    22    51 1   
    47    23    52 1   
    48    24    53 1   
    49    25    54 1   
    50    25    55 1   
    51    26    27 1   
    52    27    28 ar  
    53    27    29 ar  
    54    28    30 ar  
    55    29    31 ar  
    56    29    56 1   
    57    30    32 ar  
    58    30    57 1   
    59    31    32 ar  
    60    32    58 1   
    61    33    59 1   
    62    33    60 1   
    63    33    61 1   
@<TRIPOS>SUBSTRUCTURE
     1 GBM         1 TEMP              0 ****  ****    0 ROOT
