@<TRIPOS>MOLECULE
molecule
   29    29     1     0     0
SMALL
bcc


@<TRIPOS>ATOM
      1 N1           0.0000     0.0000     0.0000 nz         1 GBN      -0.809600
      2 C2           1.4690     0.0000     0.0000 c3         1 GBN       0.083800
      3 C3           1.5610    -1.3000     2.1310 c3         1 GBN      -0.195400
      4 C1R          1.9800     0.0000     1.4420 c3         1 GBN      -0.062000
      5 C2R          1.3830     1.1910     2.1950 c3         1 GBN      -0.083900
      6 C3R          1.8010     2.4910     1.5060 c3         1 GBN      -0.087900
      7 C4R          3.3270     2.6010     1.5070 c3         1 GBN      -0.074400
      8 C5R          3.9240     1.4100     0.7540 c3         1 GBN      -0.087900
      9 C6R          3.5060     0.1100     1.4440 c3         1 GBN      -0.083900
     10 C            2.0160    -1.2770     3.5680 c          1 GBN       0.894600
     11 OA           1.6600    -2.2680     4.4010 o          1 GBN      -0.815300
     12 OB           2.6990    -0.3650     3.9700 o          1 GBN      -0.815300
     13 HN11        -0.3340     0.8590     0.3910 hn         1 GBN       0.448133
     14 HN12        -0.3340    -0.7680     0.5480 hn         1 GBN       0.448133
     15 H21          1.8300     0.8840    -0.5110 hx         1 GBN       0.097700
     16 H22          1.8300    -0.8850    -0.5110 hx         1 GBN       0.097700
     17 H31          0.4830    -1.3970     2.0950 hc         1 GBN       0.027700
     18 H32          2.0160    -2.1410     1.6220 hc         1 GBN       0.027700
     19 H2R1         1.7470     1.1910     3.2150 hc         1 GBN       0.082200
     20 H2R2         0.3020     1.1130     2.1920 hc         1 GBN       0.082200
     21 H3R1         1.4410     2.4880     0.4840 hc         1 GBN       0.025450
     22 H3R2         1.3790     3.3330     2.0400 hc         1 GBN       0.025450
     23 H4R1         3.6870     2.5980     2.5290 hc         1 GBN       0.055700
     24 H4R2         3.6220     3.5210     1.0170 hc         1 GBN       0.055700
     25 H5R1         3.5600     1.4100    -0.2660 hc         1 GBN       0.025450
     26 H5R2         5.0050     1.4870     0.7580 hc         1 GBN       0.025450
     27 H6R1         3.8650     0.1120     2.4650 hc         1 GBN       0.082200
     28 H6R2         3.9270    -0.7330     0.9090 hc         1 GBN       0.082200
     29 H13         -0.3340    -0.0130    -0.9440 hn         1 GBN       0.448133
@<TRIPOS>BOND
     1     1     2 1
     2     1    13 1
     3     1    14 1
     4     2     4 1
     5     2    15 1
     6     2    16 1
     7     3     4 1
     8     3    10 1
     9     3    17 1
    10     3    18 1
    11     4     5 1
    12     4     9 1
    13     5     6 1
    14     5    19 1
    15     5    20 1
    16     6     7 1
    17     6    21 1
    18     6    22 1
    19     7     8 1
    20     7    23 1
    21     7    24 1
    22     8     9 1
    23     8    25 1
    24     8    26 1
    25     9    27 1
    26     9    28 1
    27    10    11 1
    28    10    12 1
    29    29     1 1
@<TRIPOS>SUBSTRUCTURE
     1 GBN         1 TEMP              0 ****  ****    0 ROOT
