@<TRIPOS>MOLECULE
GBN
   29    29     1     0     0
SMALL
bcc


@<TRIPOS>ATOM
      1 N1           0.0000     0.0000     0.0000 nz         1 GBN       0.052400
      2 C2           1.4690     0.0000     0.0000 c3         1 GBN      -0.079200
      3 C3           1.5610    -1.3000     2.1310 c3         1 GBN      -0.146400
      4 C1R          1.9800     0.0000     1.4420 c3         1 GBN      -0.042000
      5 C2R          1.3830     1.1910     2.1950 c3         1 GBN      -0.062400
      6 C3R          1.8010     2.4910     1.5060 c3         1 GBN      -0.025900
      7 C4R          3.3270     2.6010     1.5070 c3         1 GBN      -0.021400
      8 C5R          3.9240     1.4100     0.7540 c3         1 GBN      -0.025900
      9 C6R          3.5060     0.1100     1.4440 c3         1 GBN      -0.062400
     10 C            2.0160    -1.2770     3.5680 c          1 GBN       0.981600
     11 OA           1.6600    -2.2680     4.4010 o          1 GBN      -0.857300
     12 OB           2.6990    -0.3650     3.9700 o          1 GBN      -0.857300
     13 HN11        -0.3340     0.8590     0.3910 hn         1 GBN       0.223800
     14 HN12        -0.3340    -0.7680     0.5480 hn         1 GBN       0.223800
     15 H21          1.8300     0.8840    -0.5110 hx         1 GBN       0.082700
     16 H22          1.8300    -0.8850    -0.5110 hx         1 GBN       0.082700
     17 H31          0.4830    -1.3970     2.0950 hc         1 GBN       0.006200
     18 H32          2.0160    -2.1410     1.6220 hc         1 GBN       0.006200
     19 H2R1         1.7470     1.1910     3.2150 hc         1 GBN       0.061700
     20 H2R2         0.3020     1.1130     2.1920 hc         1 GBN       0.061700
     21 H3R1         1.4410     2.4880     0.4840 hc         1 GBN      -0.000550
     22 H3R2         1.3790     3.3330     2.0400 hc         1 GBN      -0.000550
     23 H4R1         3.6870     2.5980     2.5290 hc         1 GBN       0.027200
     24 H4R2         3.6220     3.5210     1.0170 hc         1 GBN       0.027200
     25 H5R1         3.5600     1.4100    -0.2660 hc         1 GBN      -0.000550
     26 H5R2         5.0050     1.4870     0.7580 hc         1 GBN      -0.000550
     27 H6R1         3.8650     0.1120     2.4650 hc         1 GBN       0.061700
     28 H6R2         3.9270    -0.7330     0.9090 hc         1 GBN       0.061700
     29 H13         -0.3340    -0.0130    -0.9440 hn         1 GBN       0.223800
@<TRIPOS>BOND
     1     1     2 1   
     2     1    13 1   
     3     1    14 1   
     4     1    29 1   
     5     2     4 1   
     6     2    15 1   
     7     2    16 1   
     8     3     4 1   
     9     3    10 1   
    10     3    17 1   
    11     3    18 1   
    12     4     5 1   
    13     4     9 1   
    14     5     6 1   
    15     5    19 1   
    16     5    20 1   
    17     6     7 1   
    18     6    21 1   
    19     6    22 1   
    20     7     8 1   
    21     7    23 1   
    22     7    24 1   
    23     8     9 1   
    24     8    25 1   
    25     8    26 1   
    26     9    27 1   
    27     9    28 1   
    28    10    11 1   
    29    10    12 1   
@<TRIPOS>SUBSTRUCTURE
     1 GBN         1 TEMP              0 ****  ****    0 ROOT
