@<TRIPOS>MOLECULE
molecule
   67    68     1     0     0
SMALL
bcc


@<TRIPOS>ATOM
      1 O2           0.0000     0.0000     0.0000 o          1 GBO      -0.862500
      2 P1           1.6090     0.0000     0.0000 p5         1 GBO       1.312900
      3 O8           2.1460     0.0000     1.5170 o          1 GBO      -0.862500
      4 O1           2.1020    -1.2090    -0.6980 o          1 GBO      -0.862500
      5 O3           2.1470     1.3140    -0.7590 os         1 GBO      -0.707800
      6 P2           2.2360     1.7540    -2.3060 p5         1 GBO       1.415800
      7 O4           3.4400     0.9590    -3.0200 o          1 GBO      -0.847500
      8 O9           0.9610     1.4330    -2.9850 o          1 GBO      -0.847500
      9 O5           2.5080     3.3380    -2.3980 os         1 GBO      -0.545200
     10 C1           2.5370     4.0530    -3.6350 c3         1 GBO       0.238600
     11 C2           2.8150     5.5090    -3.3680 c2         1 GBO      -0.480200
     12 C3           2.1140     6.4330    -3.9770 c2         1 GBO      -0.051400
     13 C4           1.1160     6.0450    -5.0380 c3         1 GBO      -0.113900
     14 C5           2.3060     7.8840    -3.6180 c3         1 GBO      -0.056200
     15 C6           3.3060     8.5210    -4.5850 c3         1 GBO      -0.104200
     16 C7           3.4970     9.9720    -4.2260 c2         1 GBO      -0.514200
     17 C8           4.6890    10.4170    -3.9130 c2         1 GBO      -0.041400
     18 C9           5.8420     9.4570    -3.7820 c3         1 GBO      -0.120900
     19 C10          4.9050    11.8910    -3.6820 c3         1 GBO       0.158200
     20 N1           4.8020    12.1810    -2.2500 ns         1 GBO      -0.573900
     21 C11          4.9620    13.4430    -1.8040 c          1 GBO       0.656100
     22 O6           5.1910    14.3390    -2.5900 o          1 GBO      -0.632100
     23 C12          4.8560    13.7420    -0.3310 c3         1 GBO      -0.158400
     24 C13          5.0760    15.2390    -0.0980 c3         1 GBO      -0.065400
     25 C14          4.9690    15.5420     1.3980 c3         1 GBO      -0.085400
     26 C15          5.1890    17.0370     1.6320 c3         1 GBO      -0.058400
     27 C16          5.0810    17.3410     3.1280 c3         1 GBO       0.015400
     28 S1           3.3510    17.1310     3.7130 ss         1 GBO      -0.465200
     29 C17          3.5100    18.3290     5.0990 c3         1 GBO      -0.013300
     30 C18          4.4640    19.3920     4.5200 c3         1 GBO       0.094700
     31 C19          5.3590    18.8320     3.4050 c3         1 GBO       0.102700
     32 N2           4.9840    19.6180     2.2180 ns         1 GBO      -0.590900
     33 C20          4.0320    20.4970     2.5600 c          1 GBO       0.822500
     34 O7           3.5360    21.2760     1.7700 o          1 GBO      -0.710500
     35 N3           3.6750    20.4410     3.8550 ns         1 GBO      -0.599900
     36 H1           3.3150     3.6470    -4.2690 h1         1 GBO       0.013700
     37 H1A          1.5790     3.9540    -4.1310 h1         1 GBO       0.013700
     38 H2           3.2300     4.9960    -4.2270 ha         1 GBO       0.350000
     39 H4           1.6090     5.4480    -5.7960 hc         1 GBO       0.042367
     40 H4A          0.7060     6.9380    -5.4920 hc         1 GBO       0.042367
     41 H4B          0.3170     5.4680    -4.5880 hc         1 GBO       0.042367
     42 H5           2.6840     7.9590    -2.6060 hc         1 GBO       0.060700
     43 H5A          1.3570     8.4020    -3.6880 hc         1 GBO       0.060700
     44 H6           4.2550     8.0030    -4.5150 hc         1 GBO       0.066700
     45 H6A          2.9270     8.4460    -5.5970 hc         1 GBO       0.066700
     46 H7           3.3790     9.2080    -3.4670 ha         1 GBO       0.384000
     47 H9           6.0060     8.9570    -4.7290 hc         1 GBO       0.051367
     48 H9A          6.7360    10.0010    -3.5020 hc         1 GBO       0.051367
     49 H9B          5.6150     8.7210    -3.0200 hc         1 GBO       0.051367
     50 H10          4.1520    12.4550    -4.2190 h1         1 GBO       0.057700
     51 H10A         5.8890    12.1720    -4.0370 h1         1 GBO       0.057700
     52 HN1          4.5990    11.4450    -1.6030 hn         1 GBO       0.319500
     53 H12          5.6080    13.1780     0.2070 hc         1 GBO       0.061700
     54 H12A         3.8710    13.4620     0.0240 hc         1 GBO       0.061700
     55 H13          6.0600    15.5190    -0.4540 hc         1 GBO       0.053200
     56 H13A         4.3230    15.8030    -0.6350 hc         1 GBO       0.053200
     57 H14          3.9850    15.2610     1.7540 hc         1 GBO       0.048700
     58 H14A         5.7220    14.9780     1.9350 hc         1 GBO       0.048700
     59 H15          4.4370    17.6020     1.0940 hc         1 GBO       0.045200
     60 H15A         6.1730    17.3180     1.2770 hc         1 GBO       0.045200
     61 H16          5.7550    16.7160     3.7020 h1         1 GBO       0.062700
     62 H17          2.5440    18.8020     5.2240 h1         1 GBO       0.071700
     63 H17A         4.0410    17.8250     5.8970 h1         1 GBO       0.071700
     64 H18          5.0710    19.8230     5.3080 h1         1 GBO       0.040700
     65 H19          6.4040    18.9850     3.6450 h1         1 GBO       0.045700
     66 HN2          5.3790    19.5140     1.3050 hn         1 GBO       0.358500
     67 HN3          2.9840    21.0160     4.2940 hn         1 GBO       0.349500
@<TRIPOS>BOND
     1     2     1 1
     2     4     2 1
     3     5     2 1
     4     2     3 1
     5     6     5 1
     6     8     6 1
     7     9     6 1
     8     6     7 1
     9    10     9 1
    10    10    11 1
    11    10    36 1
    12    10    37 1
    13    12    11 2
    14    11    38 1
    15    13    12 1
    16    12    14 1
    17    13    39 1
    18    13    40 1
    19    13    41 1
    20    14    15 1
    21    14    42 1
    22    14    43 1
    23    16    15 1
    24    15    44 1
    25    15    45 1
    26    16    17 2
    27    16    46 1
    28    19    17 1
    29    17    18 1
    30    18    47 1
    31    18    48 1
    32    18    49 1
    33    20    19 1
    34    19    50 1
    35    19    51 1
    36    21    20 1
    37    20    52 1
    38    23    21 1
    39    22    21 2
    40    23    24 1
    41    23    53 1
    42    23    54 1
    43    25    24 1
    44    24    55 1
    45    24    56 1
    46    25    26 1
    47    25    57 1
    48    25    58 1
    49    27    26 1
    50    26    59 1
    51    26    60 1
    52    28    27 1
    53    31    27 1
    54    27    61 1
    55    29    28 1
    56    30    29 1
    57    29    62 1
    58    29    63 1
    59    35    30 1
    60    30    31 1
    61    30    64 1
    62    32    31 1
    63    31    65 1
    64    33    32 1
    65    32    66 1
    66    34    33 2
    67    33    35 1
    68    35    67 1
@<TRIPOS>SUBSTRUCTURE
     1 GBO         1 TEMP              0 ****  ****    0 ROOT
