@<TRIPOS>MOLECULE
GBP
   55    55     1     0     0
SMALL
bcc


@<TRIPOS>ATOM
      1 C           4.2870   -2.2330    0.8840 c2        1 GBP      0.366000
      2 OT1         4.7640   -2.0930    2.0430 o         1 GBP     -0.527500
      3 OT2         3.6700   -3.2170    0.4290 o         1 GBP     -0.527500
      4 N           4.1710   -1.3960   -1.4820 n4        1 GBP     -0.071000
      5 CA          4.5320   -1.0080   -0.0880 c3        1 GBP     -0.223000
      6 CB          3.7700    0.2080    0.4320 c3        1 GBP     -0.152000
      7 CB2         6.3450   -0.9280    5.9150 c3        1 GBP     -0.341000
      8 SG2         6.4410   -2.5230    5.1780 ss        1 GBP      0.236000
      9 CG          4.5490    0.9100    1.5310 c3        1 GBP     -0.158000
     10 CD          4.3250    0.2760    2.8780 c2        1 GBP      0.309000
     11 OE          3.2560    0.0600    3.4250 o         1 GBP     -0.183000
     12 N2          5.5850   -0.0800    3.6520 n4        1 GBP     -0.122000
     13 CA2         5.4740    0.0580    5.1350 c3        1 GBP     -0.103000
     14 C2          5.7770    1.5140    5.5620 c2        1 GBP      0.273000
     15 O2          4.8780    2.2020    6.0560 o         1 GBP     -0.254000
     16 N3          7.0770    1.9930    5.3770 n         1 GBP     -0.337000
     17 CA3         7.2510    3.3480    4.9330 c3        1 GBP     -0.088000
     18 C3          7.0380    3.4980    3.4330 c2        1 GBP      0.283000
     19 O31         7.2210    4.6920    2.8270 oh        1 GBP     -0.245000
     20 O32         6.6890    2.5850    2.6700 o         1 GBP     -0.388000
     21 NE2         8.4190   -1.6350    3.4740 n3        1 GBP     -0.042000
     22 OF2         8.7500   -0.4330    3.9740 oh        1 GBP     -0.268000
     23 CD2         8.1140   -2.6370    4.5290 c3        1 GBP     -0.015000
     24 OZ1         9.0250   -2.4480    5.5840 oh        1 GBP     -0.308000
     25 CG2         8.3570   -1.8120    2.1840 c2        1 GBP     -0.523000
     26 CL1         8.7960   -0.5210    0.8900 cl        1 GBP      0.736000
     27 CL2         7.7270   -3.2510    1.2500 cl        1 GBP      0.736000
     28 CM1         7.9200   -0.6860   -0.5750 c2        1 GBP     -0.644000
     29 CM2         7.6710   -3.1470   -0.4730 c2        1 GBP     -0.644000
     30 CZ          7.6590   -1.9350   -1.0890 c2        1 GBP      0.078000
     31 BR          7.0640   -1.9390   -2.9180 br        1 GBP     -0.016000
     32 H11N        3.6120   -2.2710   -1.4260 hn        1 GBP      0.253333
     33 H12N        3.6290   -0.6730   -1.9470 hn        1 GBP      0.253333
     34 HA1         5.6460   -0.7940   -0.0830 hx        1 GBP      0.164000
     35 HB1         2.7630   -0.1090    0.8170 hc        1 GBP      0.117000
     36 HB2         3.6030    0.9610   -0.3870 hc        1 GBP      0.117000
     37 HB21        5.8690   -1.0580    6.9260 h1        1 GBP      0.163500
     38 HB22        7.3780   -0.5340    6.0900 h1        1 GBP      0.163500
     39 HG1         4.1830    1.9730    1.6310 hc        1 GBP      0.147500
     40 HG2         5.6380    0.9670    1.2590 hc        1 GBP      0.147500
     41 HN21        5.7520   -1.1000    3.4410 hn        1 GBP      0.284000
     42 HA2         4.3830   -0.1410    5.4040 hx        1 GBP      0.205000
     43 HN3         7.7430    1.3470    5.0060 hn        1 GBP      0.222000
     44 HA31        6.5170    4.0180    5.4720 h1        1 GBP      0.157000
     45 HA32        8.2990    3.6810    5.1860 h1        1 GBP      0.157000
     46 HOF2        9.6030   -0.5320    4.4500 ho        1 GBP      0.248000
     47 HD2         8.1720   -3.6650    4.0670 h3        1 GBP      0.165000
     48 HOZ1        9.7920   -3.0270    5.4530 ho        1 GBP      0.243000
     49 HL1         9.6110    0.4900    0.6390 ha        1 GBP     -0.092500
     50 HL2         7.1880   -4.4350    1.4720 ha        1 GBP     -0.092500
     51 HM1         7.7520    0.2510   -1.0990 h4        1 GBP      0.177000
     52 HM2         7.6020   -4.1080   -0.9830 h4        1 GBP      0.177000
     53 HN31        5.0430   -1.5920   -2.0230 hn        1 GBP      0.253333
     54 H22         6.3690    0.4720    3.2840 hn        1 GBP      0.284000
     55 H32         7.4740    5.3670    3.4780 ho        1 GBP      0.249000
@<TRIPOS>BOND
     1    1    2 1   
     2    1    3 1   
     3    1    5 1   
     4    4    5 1   
     5    4   32 1   
     6    4   33 1   
     7    4   53 1   
     8    5    6 1   
     9    5   34 1   
    10    6    9 1   
    11    6   35 1   
    12    6   36 1   
    13    7    8 1   
    14    7   13 1   
    15    7   37 1   
    16    7   38 1   
    17    8   23 1   
    18    9   10 1   
    19    9   39 1   
    20    9   40 1   
    21   10   11 1   
    22   10   12 1   
    23   12   13 1   
    24   12   41 1   
    25   12   54 1   
    26   13   14 1   
    27   13   42 1   
    28   14   15 1   
    29   14   16 1   
    30   16   17 1   
    31   16   43 1   
    32   17   18 1   
    33   17   44 1   
    34   17   45 1   
    35   18   19 1   
    36   18   20 1   
    37   19   55 1   
    38   21   22 1   
    39   21   23 1   
    40   21   25 1   
    41   22   46 1   
    42   23   24 1   
    43   23   47 1   
    44   24   48 1   
    45   25   26 1   
    46   25   27 1   
    47   26   28 1   
    48   26   49 1   
    49   27   29 1   
    50   27   50 1   
    51   28   30 1   
    52   28   51 1   
    53   29   30 1   
    54   29   52 1   
    55   30   31 1   
@<TRIPOS>SUBSTRUCTURE
     1 GBP         1 TEMP              0 ****  ****    0 ROOT
