@<TRIPOS>MOLECULE
molecule
   58    61     1     0     0
SMALL
bcc


@<TRIPOS>ATOM
      1 C13          0.0000     0.0000     0.0000 c3         1 GBQ       0.677200
      2 C21          5.2450    -0.9310     5.4650 c3         1 GBQ       0.117800
      3 C22          5.7140     0.1380     4.4740 c3         1 GBQ       0.137400
      4 C24          3.9390    -2.9590     5.6760 c3         1 GBQ       0.145500
      5 C01          5.1160     1.4210     1.5280 c3         1 GBQ      -0.117100
      6 C02          4.9040     0.0010     0.9990 c3         1 GBQ       0.193400
      7 C03          3.7760     0.0000     0.0000 ca         1 GBQ      -0.094300
      8 C04          2.4640     0.0000     0.4380 ca         1 GBQ      -0.038000
      9 C05          1.4290    -0.0000    -0.4780 ca         1 GBQ      -0.189800
     10 C06          1.7060    -0.0020    -1.8320 ca         1 GBQ      -0.037000
     11 C07          3.0170    -0.0040    -2.2710 ca         1 GBQ      -0.189800
     12 C08          4.0510     0.0030    -1.3540 ca         1 GBQ      -0.038000
     13 C09          3.3170    -0.0060    -3.7470 c3         1 GBQ       0.677200
     14 C18          5.7150    -1.4760     2.7040 c3         1 GBQ       0.352900
     15 C19          5.2480    -2.5620     3.6770 c3         1 GBQ       0.204800
     16 C25          2.9450    -2.3260     6.6140 cc         1 GBQ       0.633200
     17 C27          1.6870    -0.8410     7.5780 c          1 GBQ       0.821900
     18 C31          4.4000    -3.5670     2.9410 ca         1 GBQ      -0.125300
     19 C32          3.0750    -3.2840     2.6660 ca         1 GBQ      -0.081500
     20 C33          2.2980    -4.2060     1.9900 ca         1 GBQ      -0.176500
     21 C34          2.8460    -5.4120     1.5880 ca         1 GBQ       0.140900
     22 C35          4.1740    -5.6930     1.8640 ca         1 GBQ      -0.176500
     23 C36          4.9510    -4.7700     2.5350 ca         1 GBQ      -0.081500
     24 F10          2.1180    -0.0080    -4.4680 f          1 GBQ      -0.220300
     25 F11          4.0570     1.1350    -4.0750 f          1 GBQ      -0.220300
     26 F12          4.0550    -1.1500    -4.0710 f          1 GBQ      -0.220300
     27 F14         -0.4420     1.3200     0.1470 f          1 GBQ      -0.220300
     28 F15         -0.8040    -0.6600    -0.9340 f          1 GBQ      -0.220300
     29 F16         -0.0800    -0.6570     1.2320 f          1 GBQ      -0.220300
     30 F37          2.0870    -6.3130     0.9280 f          1 GBQ      -0.137900
     31 N20          4.4550    -1.9430     4.7490 n3         1 GBQ      -0.692600
     32 N26          2.5910    -1.0670     6.6090 nd         1 GBQ      -0.693100
     33 N29          1.4520    -2.0070     8.2150 ns         1 GBQ      -0.438300
     34 N30          2.2690    -2.9660     7.5940 na         1 GBQ      -0.642200
     35 O17          4.5790    -0.8680     2.0860 os         1 GBQ      -0.422600
     36 O23          6.4550    -0.4850     3.4220 os         1 GBQ      -0.446600
     37 O28          1.1640     0.2290     7.8320 o          1 GBQ      -0.619500
     38 H1           6.1080    -1.4020     5.9200 h1         1 GBQ       0.060200
     39 H2           4.6330    -0.4700     6.2300 h1         1 GBQ       0.060200
     40 H3           6.3460     0.8530     4.9860 h1         1 GBQ       0.068200
     41 H4           4.8520     0.6440     4.0560 h1         1 GBQ       0.068200
     42 H5           3.4520    -3.7470     5.1130 h1         1 GBQ       0.061700
     43 H6           4.7590    -3.3770     6.2470 h1         1 GBQ       0.061700
     44 H7           5.0250     2.1270     0.7120 hc         1 GBQ       0.052033
     45 H8           4.3690     1.6400     2.2810 hc         1 GBQ       0.052033
     46 H9           6.1040     1.4990     1.9650 hc         1 GBQ       0.052033
     47 H10          5.8120    -0.3440     0.5190 h1         1 GBQ       0.046700
     48 H11          2.2480     0.0460     1.4990 ha         1 GBQ       0.160000
     49 H12          0.8950    -0.0080    -2.5500 ha         1 GBQ       0.165000
     50 H13          5.0790     0.0010    -1.6980 ha         1 GBQ       0.160000
     51 H14          6.3500    -1.9200     1.9470 h2         1 GBQ       0.078700
     52 H15          6.1110    -3.0550     4.1060 h1         1 GBQ       0.048700
     53 H16          2.6460    -2.3410     2.9800 ha         1 GBQ       0.153500
     54 H17          1.2600    -3.9840     1.7740 ha         1 GBQ       0.149500
     55 H18          4.6040    -6.6360     1.5480 ha         1 GBQ       0.149500
     56 H19          5.9890    -4.9900     2.7510 ha         1 GBQ       0.153500
     57 H21          2.3340    -3.9370     7.8280 hn         1 GBQ       0.484800
     58 H22          0.8260    -2.1580     8.9810 hn         1 GBQ       0.372500
@<TRIPOS>BOND
     1    33    34 1
     2    33    17 1
     3    34    16 1
     4    37    17 2
     5    17    32 1
     6     2     3 1
     7     2    31 1
     8    16    32 2
     9    16     4 1
    10     3    36 1
    11     4    31 1
    12    36    14 1
    13    31    15 1
    14    15    14 1
    15    15    18 1
    16    14    35 1
    17    35     6 1
    18    18    23 ar
    19    18    19 ar
    20     6     5 1
    21     6     7 1
    22    23    22 ar
    23    19    20 ar
    24     7    12 ar
    25     7     8 ar
    26    22    21 ar
    27    20    21 ar
    28    12    11 ar
    29    21    30 1
    30     8     9 ar
    31    26    13 1
    32    11    13 1
    33    11    10 ar
    34    13    24 1
    35    13    25 1
    36     9    10 ar
    37     9     1 1
    38    28     1 1
    39     1    27 1
    40     1    29 1
    41     2    38 1
    42     2    39 1
    43     3    40 1
    44     3    41 1
    45     4    42 1
    46     4    43 1
    47     5    44 1
    48     5    45 1
    49     5    46 1
    50     6    47 1
    51     8    48 1
    52    10    49 1
    53    12    50 1
    54    14    51 1
    55    15    52 1
    56    19    53 1
    57    20    54 1
    58    22    55 1
    59    23    56 1
    60    34    57 1
    61    33    58 1
@<TRIPOS>SUBSTRUCTURE
     1 GBQ         1 TEMP              0 ****  ****    0 ROOT
