@<TRIPOS>MOLECULE
GBR
   46    48     1     0     0
SMALL
bcc


@<TRIPOS>ATOM
      1 N1           0.0000     0.0000     0.0000 ns         1 GBR      -0.017400
      2 C2           1.3630     0.0000     0.0000 cc         1 GBR      -0.398200
      3 N2           2.0290    -0.0000    -1.2010 nz         1 GBR       0.362400
      4 N3           2.0580     0.0000     1.1150 nd         1 GBR      -0.723100
      5 C4           1.4510     0.0000     2.3080 cd         1 GBR       0.006800
      6 C5           0.0540     0.0000     2.3750 cc         1 GBR      -0.053200
      7 C6          -0.6820    -0.0010     1.1660 c          1 GBR       0.604000
      8 O6          -1.9000    -0.0000     1.1780 o          1 GBR      -0.817500
      9 N7          -0.2860    -0.0000     3.6860 nc         1 GBR      -0.531000
     10 C8           0.7940    -0.0000     4.4110 cd         1 GBR       0.131400
     11 N9           1.8930     0.0000     3.6030 na         1 GBR       0.166100
     12 PA           4.5260    -1.6770     9.5350 p5         1 GBR       0.970800
     13 PB           5.4930    -4.1190    10.9100 p5         1 GBR       0.733600
     14 BrB          4.3840    -6.5970     9.4250 br         1 GBR      -0.244400
     15 PG           6.4630    -6.8180    11.7070 p5         1 GBR       0.522700
     16 C1'          3.2910     0.0000     4.0410 c3         1 GBR       0.184800
     17 O1A          3.0100    -1.5660    10.0650 o          1 GBR      -0.665500
     18 O1B          4.2850    -4.2420    11.9660 o          1 GBR      -0.444500
     19 O1G          5.2540    -6.9410    12.7630 o          1 GBR      -0.472833
     20 C2'          3.8290     1.4440     4.0780 c3         1 GBR      -0.117400
     21 O2A          5.3990    -0.7950    10.3410 o          1 GBR      -0.665500
     22 O2B          6.6650    -3.5020    11.5720 o          1 GBR      -0.444500
     23 O2G          6.8600    -8.2840    11.1710 o          1 GBR      -0.472833
     24 C3'          4.2750     1.6460     5.5470 c3         1 GBR       0.146100
     25 O3'          5.5100     2.3610     5.6100 oh         1 GBR      -0.586800
     26 O3A          5.0320    -3.2000     9.6710 os         1 GBR      -0.498800
     27 C3B          5.9410    -5.7780    10.3040 c3         1 GBR       0.428300
     28 O3G          7.6360    -6.2020    12.3680 o          1 GBR      -0.472833
     29 C4'          4.4570     0.1860     6.0340 c3         1 GBR       0.152100
     30 O4'          3.3850    -0.5250     5.3760 os         1 GBR      -0.370600
     31 C5'          4.3040     0.1030     7.5550 c3         1 GBR       0.314400
     32 O5'          4.5900    -1.2280     7.9900 os         1 GBR      -0.500200
     33 HN1         -0.4980     0.0010    -0.8680 hn         1 GBR       0.100500
     34 HN2          1.7610    -0.8060    -1.7300 hn         1 GBR       0.052800
     35 HN2A         3.0150    -0.0220    -1.0350 hn         1 GBR       0.052800
     36 H8           0.8170    -0.0010     5.4940 h5         1 GBR       0.019100
     37 H1'          3.8930    -0.5990     3.3690 h2         1 GBR       0.020700
     38 H2'          4.6750     1.5490     3.4090 hc         1 GBR       0.027200
     39 H2'A         3.0450     2.1460     3.8220 hc         1 GBR       0.027200
     40 H3'          3.5010     2.1460     6.1160 h1         1 GBR       0.015700
     41 HO3'         5.3380     3.2720     5.7850 ho         1 GBR       0.369000
     42 H3B          6.7550    -5.6950     9.5930 h1         1 GBR       0.042700
     43 H4'          5.4180    -0.2020     5.7190 h1         1 GBR       0.021700
     44 H5'          3.2900     0.3630     7.8310 h1         1 GBR      -0.015300
     45 H5'A         4.9950     0.7920     8.0250 h1         1 GBR      -0.015300
     46 H23          1.7880     0.8240    -1.7150 hn         1 GBR       0.052800
@<TRIPOS>BOND
     1     1     2 1   
     2     1     7 1   
     3     1    33 1   
     4     2     3 1   
     5     2     4 2   
     6     3    34 1   
     7     3    35 1   
     8     3    46 1   
     9     4     5 1   
    10     5     6 2   
    11     5    11 1   
    12     6     7 1   
    13     6     9 1   
    14     7     8 2   
    15     9    10 2   
    16    10    11 1   
    17    10    36 1   
    18    11    16 1   
    19    12    17 1   
    20    12    21 1   
    21    12    26 1   
    22    12    32 1   
    23    13    18 1   
    24    13    22 1   
    25    13    26 1   
    26    13    27 1   
    27    14    27 1   
    28    15    19 1   
    29    15    23 1   
    30    15    27 1   
    31    15    28 1   
    32    16    20 1   
    33    16    30 1   
    34    16    37 1   
    35    20    24 1   
    36    20    38 1   
    37    20    39 1   
    38    24    25 1   
    39    24    29 1   
    40    24    40 1   
    41    25    41 1   
    42    27    42 1   
    43    29    30 1   
    44    29    31 1   
    45    29    43 1   
    46    31    32 1   
    47    31    44 1   
    48    31    45 1   
@<TRIPOS>SUBSTRUCTURE
     1 GBR         1 TEMP              0 ****  ****    0 ROOT
