@<TRIPOS>MOLECULE
GBS
   22    22     1     0     0
SMALL
bcc


@<TRIPOS>ATOM
      1 CD           0.0000     0.0000     0.0000 c          1 GBS       0.949200
      2 OD           1.3480     0.0000     0.0000 o          1 GBS      -0.843800
      3 C1          -0.7360     0.0000     1.2770 ca         1 GBS      -0.045600
      4 C21         -2.1340    -0.0000     1.2790 ca         1 GBS      -0.038000
      5 C22         -0.0390     0.0020     2.4880 ca         1 GBS      -0.038000
      6 C31         -2.8190    -0.0000     2.4710 ca         1 GBS      -0.152000
      7 C32         -0.7300     0.0080     3.6780 ca         1 GBS      -0.152000
      8 C4          -2.1210     0.0010     3.6760 ca         1 GBS      -0.164400
      9 NE          -2.8180     0.0000     4.8830 nu         1 GBS      -0.234600
     10 CZ          -2.3810    -0.7770     5.9300 c2         1 GBS       0.262100
     11 NH1         -1.3280    -1.6430     5.7500 nz         1 GBS       0.157400
     12 NH2         -2.9630    -0.6940     7.0930 n2         1 GBS      -0.707100
     13 OXT         -0.6070    -0.0010    -1.0520 o          1 GBS      -0.843800
     14 H21         -2.6780    -0.0010     0.3420 ha         1 GBS       0.147000
     15 H22          1.0440     0.0070     2.4910 ha         1 GBS       0.147000
     16 H31         -3.9020    -0.0030     2.4730 ha         1 GBS       0.087000
     17 H32         -0.1910     0.0090     4.6170 ha         1 GBS       0.087000
     18 HE          -3.6150     0.5930     4.9990 hn         1 GBS       0.313800
     19 HH11        -0.4670    -1.1600     5.9170 hn         1 GBS       0.233800
     20 HH12        -1.4110    -2.4070     6.3910 hn         1 GBS       0.233800
     21 HH2         -3.7300    -0.0640     7.2250 hn         1 GBS       0.369400
     22 HH13        -1.3390    -1.9920     4.8130 hn         1 GBS       0.233800
@<TRIPOS>BOND
     1     1     2 1   
     2     1     3 1   
     3     1    13 1   
     4     3     4 ar  
     5     3     5 ar  
     6     4     6 ar  
     7     4    14 1   
     8     5     7 ar  
     9     5    15 1   
    10     6     8 ar  
    11     6    16 1   
    12     7     8 ar  
    13     7    17 1   
    14     8     9 1   
    15     9    10 1   
    16     9    18 1   
    17    10    11 1   
    18    10    12 2   
    19    11    19 1   
    20    11    20 1   
    21    11    22 1   
    22    12    21 1   
@<TRIPOS>SUBSTRUCTURE
     1 GBS         1 TEMP              0 ****  ****    0 ROOT
