@<TRIPOS>MOLECULE
molecule
   22    22     1     0     0
SMALL
bcc


@<TRIPOS>ATOM
      1 CD           0.0000     0.0000     0.0000 c          1 GBS       0.866200
      2 OD           1.3480     0.0000     0.0000 o          1 GBS      -0.799300
      3 C1          -0.7360     0.0000     1.2770 ca         1 GBS      -0.063600
      4 C21         -2.1340    -0.0000     1.2790 ca         1 GBS      -0.069500
      5 C22         -0.0390     0.0020     2.4880 ca         1 GBS      -0.069500
      6 C31         -2.8190    -0.0000     2.4710 ca         1 GBS      -0.184500
      7 C32         -0.7300     0.0080     3.6780 ca         1 GBS      -0.184500
      8 C4          -2.1210     0.0010     3.6760 ca         1 GBS       0.012600
      9 NE          -2.8180     0.0000     4.8830 nu         1 GBS      -0.683600
     10 CZ          -2.3810    -0.7770     5.9300 c2         1 GBS       0.709100
     11 NH1         -1.3280    -1.6430     5.7500 nz         1 GBS      -0.807600
     12 NH2         -2.9630    -0.6940     7.0930 n2         1 GBS      -0.834100
     13 OXT         -0.6070    -0.0010    -1.0520 o          1 GBS      -0.799300
     14 H21         -2.6780    -0.0010     0.3420 ha         1 GBS       0.179000
     15 H22          1.0440     0.0070     2.4910 ha         1 GBS       0.179000
     16 H31         -3.9020    -0.0030     2.4730 ha         1 GBS       0.106000
     17 H32         -0.1910     0.0090     4.6170 ha         1 GBS       0.106000
     18 HE          -3.6130     0.5960     5.0000 hn         1 GBS       0.503800
     19 HH11        -0.4690    -1.1700     5.9510 hn         1 GBS       0.469467
     20 HH12        -1.3180    -1.9640     4.8030 hn         1 GBS       0.469467
     21 HH2         -2.6450    -1.2590     7.8550 hn         1 GBS       0.425400
     22 HH13        -1.4300    -2.4250     6.3670 hn         1 GBS       0.469467
@<TRIPOS>BOND
     1     1     2 1
     2     1     3 1
     3     1    13 1
     4     3     4 ar
     5     3     5 ar
     6     4     6 ar
     7     4    14 1
     8     5     7 ar
     9     5    15 1
    10     6     8 ar
    11     6    16 1
    12     7     8 ar
    13     7    17 1
    14     8     9 1
    15     9    10 1
    16     9    18 1
    17    10    11 1
    18    10    12 2
    19    11    19 1
    20    11    20 1
    21    12    21 1
    22    22    11 1
@<TRIPOS>SUBSTRUCTURE
     1 GBS         1 TEMP              0 ****  ****    0 ROOT
