@<TRIPOS>MOLECULE
GBX
   69    73     1     0     0
SMALL
bcc


@<TRIPOS>ATOM
      1 O2           0.0000     0.0000     0.0000 o          1 GBX      -0.663100
      2 C1           5.6290     6.4050    -1.5740 c          1 GBX       0.960600
      3 C2           1.2130     0.0000     0.0000 c          1 GBX       0.530100
      4 C3           2.1340     0.0000     3.5810 c          1 GBX       0.972600
      5 N1           6.2670     4.7690     0.1050 nz         1 GBX       0.082400
      6 C7           6.1900    -3.7400    -3.7430 c          1 GBX       0.555700
      7 N2           3.2470     0.6900    -1.1300 ns         1 GBX      -0.195900
      8 N3           1.8870     0.0000     1.1670 ns         1 GBX      -0.144900
      9 CA1          5.8050     4.9380    -1.2790 c3         1 GBX      -0.205500
     10 CB1          4.4680     4.2170    -1.4610 c3         1 GBX      -0.008400
     11 CG1          4.6460     2.7280    -1.1610 c3         1 GBX      -0.123400
     12 CD1          3.3290     2.0180    -1.3410 c          1 GBX       0.582100
     13 OE1          2.3460     2.6420    -1.6760 o          1 GBX      -0.620100
     14 CA2          1.9660    -0.0000    -1.3050 c3         1 GBX      -0.035300
     15 CB2          2.2200    -1.4430    -1.7460 c3         1 GBX       0.066700
     16 SG2          3.1280    -1.4430    -3.3170 ss         1 GBX      -0.378200
     17 CA3          1.1550     0.0000     2.4370 c3         1 GBX      -0.074000
     18 O31          3.3220     0.0000     3.3600 o          1 GBX      -0.891800
     19 O32          1.6870     0.0010     4.8470 o          1 GBX      -0.891800
     20 O7           7.3670    -4.0360    -3.7660 o          1 GBX      -0.513100
     21 C8           5.4750    -3.4050    -2.4640 c          1 GBX       0.508100
     22 O8           6.0140    -2.8270    -1.5510 o          1 GBX      -0.479100
     23 C9           4.0230    -3.8470    -2.4070 c3         1 GBX       0.086100
     24 O9           3.9460    -5.2720    -2.4830 oh         1 GBX      -0.568800
     25 C10          3.2830    -3.2300    -3.5900 c3         1 GBX       0.094700
     26 C1'          6.0000    -3.8790    -6.2110 ca         1 GBX      -0.028000
     27 C2'          5.3670    -3.6900    -4.9780 ca         1 GBX      -0.164600
     28 C3'          3.9950    -3.4630    -4.8930 ca         1 GBX       0.000700
     29 C4'          1.7930    -3.2120    -6.0260 ca         1 GBX      -0.086000
     30 C5'          1.0770    -3.1780    -7.1720 ca         1 GBX      -0.084000
     31 C6'          0.9620    -3.3220    -9.6120 ca         1 GBX      -0.087000
     32 C7'          1.5840    -3.5030   -10.8300 ca         1 GBX      -0.098000
     33 C8'          2.9460    -3.7240   -10.9150 ca         1 GBX      -0.090000
     34 C9'          5.1620    -4.0030    -9.8220 ca         1 GBX      -0.089000
     35 C9A          5.9000    -4.0410    -8.6900 ca         1 GBX      -0.081000
     36 C11          5.2610    -3.8480    -7.3910 ca         1 GBX      -0.044000
     37 C12          3.8650    -3.6250    -7.3210 ca         1 GBX       0.015000
     38 C13          3.2350    -3.4390    -6.0700 ca         1 GBX      -0.028000
     39 C16          1.7050    -3.3610    -8.4270 ca         1 GBX      -0.023000
     40 C17          3.0990    -3.5850    -8.4990 ca         1 GBX      -0.017000
     41 C18          3.7220    -3.7700    -9.7550 ca         1 GBX      -0.026000
     42 HN12         6.6740     3.8620     0.2120 hn         1 GBX       0.212467
     43 HN2          4.0690     0.1670    -0.9010 hn         1 GBX       0.186500
     44 HN3          2.8880     0.0220     1.1670 hn         1 GBX       0.188500
     45 HA1          6.5370     4.5190    -1.9580 hx         1 GBX       0.081700
     46 HB11         4.1280     4.3420    -2.4820 hc         1 GBX       0.069700
     47 HB12         3.7360     4.6370    -0.7830 hc         1 GBX       0.069700
     48 HG11         5.3780     2.3080    -1.8400 hc         1 GBX       0.020200
     49 HG12         4.9860     2.6030    -0.1400 hc         1 GBX       0.020200
     50 HA2          1.3810     0.5110    -2.0600 h1         1 GBX       0.092700
     51 HB21         1.2740    -1.9530    -1.8770 h1         1 GBX       0.054200
     52 HB22         2.8050    -1.9540    -0.9910 h1         1 GBX       0.054200
     53 HA31         0.5320    -0.8840     2.4940 h1         1 GBX       0.029200
     54 HA32         0.5320     0.8850     2.4940 h1         1 GBX       0.029200
     55 H9           3.5760    -3.5030    -1.4820 h1         1 GBX       0.041700
     56 HO9          3.8730    -5.6300    -1.6140 ho         1 GBX       0.403000
     57 H10          2.2940    -3.6680    -3.6500 h1         1 GBX       0.076700
     58 H1'          7.0690    -4.0510    -6.2490 ha         1 GBX       0.124000
     59 H4'          1.3000    -3.0470    -5.0750 ha         1 GBX       0.121000
     60 H5'          0.0080    -3.0090    -7.1290 ha         1 GBX       0.109000
     61 H6'         -0.1070    -3.1500    -9.5720 ha         1 GBX       0.107000
     62 H7'          0.9940    -3.4700   -11.7380 ha         1 GBX       0.100000
     63 H8'          3.4110    -3.8630   -11.8830 ha         1 GBX       0.104000
     64 H9'          5.6410    -4.1460   -10.7830 ha         1 GBX       0.105000
     65 H9A          6.9670    -4.2160    -8.7470 ha         1 GBX       0.107000
     66 O11          5.3270     7.1680    -0.6880 o          1 GBX      -0.825800
     67 O12          5.8070     6.8650    -2.8230 o          1 GBX      -0.825800
     68 H12          5.4900     4.8620     0.7300 hn         1 GBX       0.212467
     69 HN11         6.9500     5.4690     0.3160 hn         1 GBX       0.212467
@<TRIPOS>BOND
     1     1     3 2   
     2     2     9 1   
     3     2    66 1   
     4     2    67 1   
     5     3     8 1   
     6     3    14 1   
     7     4    17 1   
     8     4    18 1   
     9     4    19 1   
    10     5     9 1   
    11     5    42 1   
    12     5    68 1   
    13     5    69 1   
    14     6    20 2   
    15     6    21 1   
    16     6    27 1   
    17     7    12 1   
    18     7    14 1   
    19     7    43 1   
    20     8    17 1   
    21     8    44 1   
    22     9    10 1   
    23     9    45 1   
    24    10    11 1   
    25    10    46 1   
    26    10    47 1   
    27    11    12 1   
    28    11    48 1   
    29    11    49 1   
    30    12    13 2   
    31    14    15 1   
    32    14    50 1   
    33    15    16 1   
    34    15    51 1   
    35    15    52 1   
    36    16    25 1   
    37    17    53 1   
    38    17    54 1   
    39    21    22 2   
    40    21    23 1   
    41    23    24 1   
    42    23    25 1   
    43    23    55 1   
    44    24    56 1   
    45    25    28 1   
    46    25    57 1   
    47    26    27 ar  
    48    26    36 ar  
    49    26    58 1   
    50    27    28 ar  
    51    28    38 ar  
    52    29    30 ar  
    53    29    38 ar  
    54    29    59 1   
    55    30    39 ar  
    56    30    60 1   
    57    31    32 ar  
    58    31    39 ar  
    59    31    61 1   
    60    32    33 ar  
    61    32    62 1   
    62    33    41 ar  
    63    33    63 1   
    64    34    35 ar  
    65    34    41 ar  
    66    34    64 1   
    67    35    36 ar  
    68    35    65 1   
    69    36    37 ar  
    70    37    38 ar  
    71    37    40 ar  
    72    39    40 ar  
    73    40    41 ar  
@<TRIPOS>SUBSTRUCTURE
     1 GBX         1 TEMP              0 ****  ****    0 ROOT
