@<TRIPOS>MOLECULE
molecule
   68    69     1     0     0
SMALL
bcc


@<TRIPOS>ATOM
      1 OBN          0.0000     0.0000     0.0000 o          1 GBZ      -0.889300
      2 CBA          1.3420     0.0000     0.0000 c          1 GBZ       0.891600
      3 OBO          1.9460     0.0000     1.0470 o          1 GBZ      -0.889300
      4 CAZ          2.0960    -0.0000    -1.3040 c3         1 GBZ      -0.183400
      5 CAY          3.6010     0.0000    -1.0240 c3         1 GBZ      -0.058400
      6 CAW          4.3660     0.0000    -2.3490 c3         1 GBZ       0.023700
      7 CAX          5.8420     0.1240    -2.0760 c          1 GBZ       0.892600
      8 OBG          6.5990    -0.7440    -2.4400 o          1 GBZ      -0.877300
      9 OBF          6.3170     1.2000    -1.4280 o          1 GBZ      -0.877300
     10 NAV          4.1040    -1.2520    -3.0640 ns         1 GBZ      -0.565900
     11 CAU          4.2260    -1.3000    -4.4050 c          1 GBZ       0.802100
     12 OBE          4.5510    -0.3040    -5.0230 o          1 GBZ      -0.683100
     13 N            3.9860    -2.4510    -5.0630 ns         1 GBZ      -0.593900
     14 CA           4.1170    -2.5030    -6.5210 c3         1 GBZ       0.036700
     15 C            2.8320    -2.0400    -7.1590 c          1 GBZ       0.884600
     16 O            1.9020    -1.7020    -6.4650 o          1 GBZ      -0.856800
     17 OXT          2.7210    -2.0040    -8.4950 o          1 GBZ      -0.856800
     18 CB           4.4130    -3.9410    -6.9560 c3         1 GBZ      -0.077400
     19 CAP          5.7780    -4.3670    -6.4100 c3         1 GBZ      -0.076400
     20 CAO          6.0730    -5.8040    -6.8450 c3         1 GBZ      -0.152400
     21 CAN          7.4180    -6.2240    -6.3090 c          1 GBZ       0.654100
     22 OBB          8.0320    -5.4880    -5.5650 o          1 GBZ      -0.559100
     23 NAM          7.9390    -7.4180    -6.6550 n          1 GBZ      -0.422000
     24 CBJ          7.2840    -8.2190    -7.5970 ca         1 GBZ       0.064600
     25 CBH          7.8670    -8.4540    -8.8360 ca         1 GBZ      -0.134000
     26 CBI          7.2180    -9.2460    -9.7640 ca         1 GBZ      -0.122500
     27 CBK          5.9910    -9.8040    -9.4600 ca         1 GBZ      -0.142000
     28 CBM          5.4080    -9.5730    -8.2280 ca         1 GBZ      -0.122500
     29 CBL          6.0540    -8.7870    -7.2940 ca         1 GBZ      -0.134000
     30 CAL          9.1890    -7.8770    -6.0450 c3         1 GBZ       0.096000
     31 CAJ          8.8770    -8.6690    -4.7750 c3         1 GBZ       0.086000
     32 NAI         10.1270    -9.1280    -4.1650 ns         1 GBZ      -0.572900
     33 CAH         10.0980    -9.8510    -3.0290 c          1 GBZ       0.672700
     34 OAK          9.0320   -10.1230    -2.5090 o          1 GBZ      -0.597100
     35 CAE         11.3580   -10.3140    -2.4140 ca         1 GBZ      -0.273900
     36 CAD         11.3400   -11.0710    -1.2360 ca         1 GBZ      -0.013000
     37 CAC         12.5460   -11.4790    -0.7000 ca         1 GBZ      -0.295300
     38 CAA         13.7260   -11.1310    -1.3400 ca         1 GBZ       0.648500
     39 FAB         14.9080   -11.5290    -0.8210 f          1 GBZ      -0.227200
     40 NAG         13.7120   -10.4150    -2.4510 nb         1 GBZ      -0.736000
     41 CAF         12.5870   -10.0070    -3.0010 ca         1 GBZ       0.474200
     42 H2           1.8340     0.8840    -1.8730 hc         1 GBZ       0.033700
     43 H3           1.8350    -0.8850    -1.8720 hc         1 GBZ       0.033700
     44 H4           3.8620    -0.8840    -0.4560 hc         1 GBZ       0.047700
     45 H5           3.8620     0.8850    -0.4560 hc         1 GBZ       0.047700
     46 H6           4.0390     0.8370    -2.9550 h1         1 GBZ       0.069700
     47 H8           3.8720    -2.0800    -2.5530 hn         1 GBZ       0.284500
     48 H9           3.6850    -3.2610    -4.5580 hn         1 GBZ       0.277500
     49 H10          4.9280    -1.8570    -6.8340 h1         1 GBZ       0.075700
     50 H12          4.4240    -3.9960    -8.0380 hc         1 GBZ       0.036700
     51 H13          3.6470    -4.6010    -6.5680 hc         1 GBZ       0.036700
     52 H14          6.5440    -3.7070    -6.7980 hc         1 GBZ       0.067200
     53 H15          5.7670    -4.3120    -5.3280 hc         1 GBZ       0.067200
     54 H16          5.3070    -6.4640    -6.4570 hc         1 GBZ       0.055200
     55 H17          6.0830    -5.8590    -7.9270 hc         1 GBZ       0.055200
     56 H18          8.8290    -8.0160    -9.0740 ha         1 GBZ       0.142500
     57 H19          7.6720    -9.4290   -10.7300 ha         1 GBZ       0.125500
     58 H20          5.4830   -10.4220   -10.1900 ha         1 GBZ       0.119000
     59 H21          4.4470   -10.0140    -7.9920 ha         1 GBZ       0.125500
     60 H22          5.5970    -8.6070    -6.3280 ha         1 GBZ       0.142500
     61 H23          9.7210    -8.5110    -6.7450 h1         1 GBZ       0.056700
     62 H24          9.8040    -7.0210    -5.7950 h1         1 GBZ       0.056700
     63 H25          8.2620    -9.5250    -5.0250 h1         1 GBZ       0.070700
     64 H26          8.3450    -8.0350    -4.0750 h1         1 GBZ       0.070700
     65 H27         11.0030    -8.9160    -4.6010 hn         1 GBZ       0.306500
     66 H28         10.4030   -11.3290    -0.7560 ha         1 GBZ       0.173000
     67 H29         12.5700   -12.0660     0.2110 ha         1 GBZ       0.151000
     68 H30         12.6160    -9.4220    -3.9120 h4         1 GBZ       0.031100
@<TRIPOS>BOND
     1    27    26 ar
     2    27    28 ar
     3    26    25 ar
     4    28    29 ar
     5     8     7 1
     6     3     2 1
     7     7     9 1
     8     7     6 1
     9     2     1 1
    10     2     4 1
    11    25    24 ar
    12    29    24 ar
    13     4     5 1
    14     5     6 1
    15    24    23 1
    16     6    10 1
    17    20    21 1
    18    20    19 1
    19    12    11 2
    20    23    21 1
    21    23    30 1
    22    10    11 1
    23    34    33 2
    24    11    13 1
    25    21    22 2
    26    31    30 1
    27    31    32 1
    28    19    18 1
    29    18    14 1
    30    13    14 1
    31    33    32 1
    32    33    35 1
    33    36    35 ar
    34    36    37 ar
    35    14    15 1
    36    35    41 ar
    37    37    38 ar
    38    15    16 1
    39    15    17 1
    40    41    40 ar
    41    38    40 ar
    42    38    39 1
    43     4    42 1
    44     4    43 1
    45     5    44 1
    46     5    45 1
    47     6    46 1
    48    10    47 1
    49    13    48 1
    50    14    49 1
    51    18    50 1
    52    18    51 1
    53    19    52 1
    54    19    53 1
    55    20    54 1
    56    20    55 1
    57    25    56 1
    58    26    57 1
    59    27    58 1
    60    28    59 1
    61    29    60 1
    62    30    61 1
    63    30    62 1
    64    31    63 1
    65    31    64 1
    66    32    65 1
    67    36    66 1
    68    37    67 1
    69    41    68 1
@<TRIPOS>SUBSTRUCTURE
     1 GBZ         1 TEMP              0 ****  ****    0 ROOT
