@<TRIPOS>MOLECULE
GC2
   34    35     1     0     0
SMALL
bcc


@<TRIPOS>ATOM
      1 O1           0.0000     0.0000     0.0000 o          1 GC2      -0.647100
      2 C8           1.2130     0.0000     0.0000 c          1 GC2       0.573100
      3 C10          1.9660     0.0000     1.3050 c3         1 GC2      -0.066100
      4 N2           1.8860    -0.0080    -1.1670 ns         1 GC2      -0.179900
      5 C2           1.1530    -0.0140    -2.4360 c3         1 GC2      -0.035300
      6 C3           2.0270    -0.6300    -3.5340 c3         1 GC2       0.138100
      7 O4           2.3680    -1.9720    -3.1820 oh         1 GC2      -0.564800
      8 C4           1.2360    -0.6270    -4.8420 c3         1 GC2       0.151100
      9 O2           2.0380    -1.1950    -5.8800 oh         1 GC2      -0.548800
     10 C1           0.8120     1.4210    -2.8410 c3         1 GC2       0.145800
     11 N1           0.1260     1.4590    -4.1180 n3         1 GC2      -0.530600
     12 C5           0.8470     0.8030    -5.2260 c3         1 GC2       0.091500
     13 C9          -1.2080     0.8250    -4.0990 c3         1 GC2       0.146800
     14 C7          -1.5750     0.6900    -5.5960 c3         1 GC2      -0.061400
     15 C6          -0.2250     0.6970    -6.3430 c3         1 GC2       0.194100
     16 O3          -0.0580    -0.5160    -7.0800 oh         1 GC2      -0.561800
     17 H101         1.2790     0.1980     2.1190 hc         1 GC2       0.022700
     18 H102         2.4330    -0.9670     1.4530 hc         1 GC2       0.022700
     19 H103         2.7290     0.7690     1.2820 hc         1 GC2       0.022700
     20 H2           2.8870     0.0180    -1.1680 hn         1 GC2       0.168500
     21 HA           0.2410    -0.5890    -2.3330 h1         1 GC2       0.081700
     22 H3           2.9280    -0.0400    -3.6540 h1         1 GC2       0.001700
     23 H11C         0.1720     1.8590    -2.0830 h1         1 GC2       0.032700
     24 H12C         1.7270     1.9950    -2.9140 h1         1 GC2       0.032700
     25 H4           3.3020    -2.0840    -3.2340 ho         1 GC2       0.388000
     26 HB           0.3370    -1.2180    -4.7150 h1         1 GC2       0.069700
     27 HC           2.9420    -0.9670    -5.7400 ho         1 GC2       0.370000
     28 H5           1.7040     1.3820    -5.5470 h1         1 GC2       0.043700
     29 H91C        -1.1560    -0.1510    -3.6320 h1         1 GC2       0.023700
     30 H92C        -1.9220     1.4610    -3.5900 h1         1 GC2       0.023700
     31 H6          -0.1660     1.5560    -7.0010 h1         1 GC2       0.007700
     32 H71C        -2.0960    -0.2450    -5.7710 hc         1 GC2       0.029200
     33 H72C        -2.1820     1.5300    -5.9100 hc         1 GC2       0.029200
     34 HD          -0.2670    -0.3640    -7.9870 ho         1 GC2       0.385000
@<TRIPOS>BOND
     1     1     2 2   
     2     2     3 1   
     3     2     4 1   
     4     3    17 1   
     5     3    18 1   
     6     3    19 1   
     7     4     5 1   
     8     4    20 1   
     9     5     6 1   
    10     5    10 1   
    11     5    21 1   
    12     6     7 1   
    13     6     8 1   
    14     6    22 1   
    15     7    25 1   
    16     8     9 1   
    17     8    12 1   
    18     8    26 1   
    19     9    27 1   
    20    10    11 1   
    21    10    23 1   
    22    10    24 1   
    23    11    12 1   
    24    11    13 1   
    25    12    15 1   
    26    12    28 1   
    27    13    14 1   
    28    13    29 1   
    29    13    30 1   
    30    14    15 1   
    31    14    32 1   
    32    14    33 1   
    33    15    16 1   
    34    15    31 1   
    35    16    34 1   
@<TRIPOS>SUBSTRUCTURE
     1 GC2         1 TEMP              0 ****  ****    0 ROOT
