@<TRIPOS>MOLECULE
molecule
   28    29     1     0     0
SMALL
bcc


@<TRIPOS>ATOM
      1 C1           0.0000     0.0000     0.0000 c3         1 GC3       0.322900
      2 C2           1.5280     0.0000     0.0000 c3         1 GC3       0.025500
      3 C3           2.1410     0.0000     1.3910 c3         1 GC3       0.140100
      4 C4           1.3870     0.9220     2.3430 c3         1 GC3       0.106100
      5 C5          -0.0840     0.4940     2.3680 c3         1 GC3       0.145100
      6 C6          -0.8570     1.3610     3.3650 c3         1 GC3       0.153400
      7 C7           0.7510    -2.0240    -0.5940 c2         1 GC3       0.569600
      8 C8           0.6750    -3.4210    -1.1530 c3         1 GC3       0.141100
      9 N2           1.8210    -1.3080    -0.6350 n2         1 GC3      -0.615900
     10 O1          -0.2970    -1.4080    -0.0070 os         1 GC3      -0.457400
     11 O3           3.5000     0.4340     1.3000 oh         1 GC3      -0.600800
     12 O4           1.9430     0.8130     3.6550 oh         1 GC3      -0.599800
     13 O5          -0.6200     0.6720     1.0620 os         1 GC3      -0.374600
     14 O6          -2.2000     0.8830     3.4700 oh         1 GC3      -0.599800
     15 O10          1.9430    -3.7830    -1.7060 oh         1 GC3      -0.581800
     16 H1          -0.3460     0.4320    -0.9310 h2         1 GC3       0.101700
     17 H2           1.9170     0.8150    -0.5980 h1         1 GC3       0.110700
     18 H3           2.1140    -1.0090     1.7850 h1         1 GC3       0.060700
     19 H4           1.4620     1.9440     1.9930 h1         1 GC3       0.057700
     20 HA           4.0740    -0.2940     1.4700 ho         1 GC3       0.418000
     21 H5          -0.1550    -0.5490     2.6510 h1         1 GC3       0.075700
     22 HB           2.4920     1.5600     3.8270 ho         1 GC3       0.415000
     23 H61C        -0.8650     2.3880     3.0200 h1         1 GC3       0.038200
     24 H62C        -0.3780     1.3090     4.3350 h1         1 GC3       0.038200
     25 H6          -2.6720     1.4080     4.0950 ho         1 GC3       0.404000
     26 H81C        -0.0810    -3.4600    -1.9280 h1         1 GC3       0.048200
     27 H82C         0.4160    -4.1130    -0.3610 h1         1 GC3       0.048200
     28 H10          1.8950    -4.6580    -2.0550 ho         1 GC3       0.410000
@<TRIPOS>BOND
     1     1     2 1
     2     1    10 1
     3     1    13 1
     4     2     3 1
     5     2     9 1
     6     3     4 1
     7     3    11 1
     8     4     5 1
     9     4    12 1
    10     5     6 1
    11     5    13 1
    12     6    14 1
    13     7     8 1
    14     7     9 2
    15     7    10 1
    16     8    15 1
    17     1    16 1
    18     2    17 1
    19     3    18 1
    20     4    19 1
    21    11    20 1
    22     5    21 1
    23    12    22 1
    24     6    23 1
    25     6    24 1
    26    14    25 1
    27     8    26 1
    28     8    27 1
    29    15    28 1
@<TRIPOS>SUBSTRUCTURE
     1 GC3         1 TEMP              0 ****  ****    0 ROOT
