@<TRIPOS>MOLECULE
GC7
   37    36     1     0     0
SMALL
bcc


@<TRIPOS>ATOM
      1 N1           0.0000     0.0000     0.0000 nz         1 GC7       0.090400
      2 C1           1.4680     0.0000     0.0000 c3         1 GC7      -0.050200
      3 C2           1.9800     0.0000     1.4410 c3         1 GC7      -0.034400
      4 C3           3.5100     0.0010     1.4400 c3         1 GC7      -0.014400
      5 C4           4.0220     0.0010     2.8810 c3         1 GC7      -0.021400
      6 C5           5.5520     0.0010     2.8800 c3         1 GC7      -0.017400
      7 C6           6.0630     0.0010     4.3210 c3         1 GC7      -0.025400
      8 C7           7.5920     0.0030     4.3200 c3         1 GC7       0.147800
      9 N8           8.0840     0.0020     5.7030 n7         1 GC7      -0.591200
     10 C9           9.5500     0.0030     5.6320 c3         1 GC7       0.114900
     11 NH1         10.0990     0.6950     6.8050 nz         1 GC7       0.037400
     12 NH2         10.0410    -1.3820     5.6070 nz         1 GC7       0.037400
     13 HN11        -0.3340     0.8170     0.4720 hn         1 GC7       0.229133
     14 HN12        -0.3340    -0.0000    -0.9440 hn         1 GC7       0.229133
     15 H11          1.8290    -0.8840    -0.5110 hx         1 GC7       0.087700
     16 H12          1.8290     0.8840    -0.5110 hx         1 GC7       0.087700
     17 H21          1.6200    -0.8850     1.9510 hc         1 GC7       0.037200
     18 H22          1.6190     0.8840     1.9520 hc         1 GC7       0.037200
     19 H31          3.8720    -0.8830     0.9290 hc         1 GC7       0.031200
     20 H32          3.8700     0.8860     0.9290 hc         1 GC7       0.031200
     21 H41          3.6610    -0.8830     3.3920 hc         1 GC7       0.027700
     22 H42          3.6610     0.8860     3.3920 hc         1 GC7       0.027700
     23 H51          5.9120     0.8860     2.3690 hc         1 GC7       0.026700
     24 H52          5.9120    -0.8830     2.3690 hc         1 GC7       0.026700
     25 H61          5.7020     0.8850     4.8320 hc         1 GC7       0.039200
     26 H62          5.7040    -0.8840     4.8320 hc         1 GC7       0.039200
     27 H71          7.9540    -0.8810     3.8080 h1         1 GC7       0.030200
     28 H72          7.9520     0.8880     3.8090 h1         1 GC7       0.030200
     29 HN8          7.6160     0.5460     6.4010 hn         1 GC7       0.353800
     30 H9           9.8670     0.5140     4.7310 hx         1 GC7       0.139700
     31 HH11        11.0970     0.7280     6.7370 hn         1 GC7       0.264133
     32 HH12         9.8380     0.2020     7.6360 hn         1 GC7       0.264133
     33 HH21         9.5610    -1.9190     6.3010 hn         1 GC7       0.264133
     34 HH22         9.8730    -1.7790     4.7040 hn         1 GC7       0.264133
     35 H13         -0.3340    -0.8240     0.4610 hn         1 GC7       0.229133
     36 HH13         9.7280     1.6230     6.8490 hn         1 GC7       0.264133
     37 HH23        11.0210    -1.3920     5.8090 hn         1 GC7       0.264133
@<TRIPOS>BOND
     1     1     2 1   
     2     1    13 1   
     3     1    14 1   
     4     1    35 1   
     5     2     3 1   
     6     2    15 1   
     7     2    16 1   
     8     3     4 1   
     9     3    17 1   
    10     3    18 1   
    11     4     5 1   
    12     4    19 1   
    13     4    20 1   
    14     5     6 1   
    15     5    21 1   
    16     5    22 1   
    17     6     7 1   
    18     6    23 1   
    19     6    24 1   
    20     7     8 1   
    21     7    25 1   
    22     7    26 1   
    23     8     9 1   
    24     8    27 1   
    25     8    28 1   
    26     9    10 1   
    27     9    29 1   
    28    10    11 1   
    29    10    12 1   
    30    10    30 1   
    31    11    31 1   
    32    11    32 1   
    33    11    36 1   
    34    12    33 1   
    35    12    34 1   
    36    12    37 1   
@<TRIPOS>SUBSTRUCTURE
     1 GC7         1 TEMP              0 ****  ****    0 ROOT
