@<TRIPOS>MOLECULE
molecule
   48    50     1     0     0
SMALL
bcc


@<TRIPOS>ATOM
      1 Cl1          0.0000     0.0000     0.0000 cl         1 GC8      -0.098400
      2 C02          1.7360     0.0000     0.0000 ca         1 GC8      -0.002600
      3 C03          2.4270     0.0000     1.1990 ca         1 GC8      -0.081000
      4 C04          3.8080     0.0000     1.2010 ca         1 GC8      -0.211000
      5 C05          4.5040     0.0000     0.0010 ca         1 GC8       0.148100
      6 O06          5.8630     0.0000     0.0010 os         1 GC8      -0.278900
      7 C07          6.5110    -0.0000     1.2750 c3         1 GC8       0.062400
      8 C08          8.0050    -0.0000     1.0780 c          1 GC8       0.656100
      9 O09          8.4700    -0.0000    -0.0420 o          1 GC8      -0.553100
     10 N10          8.8250    -0.0010     2.1470 ns         1 GC8      -0.478100
     11 C11         10.2090    -0.0980     1.9680 ca         1 GC8       0.050600
     12 C12         10.8130     0.5020     0.8700 ca         1 GC8      -0.143000
     13 C13         12.1790     0.4040     0.6950 ca         1 GC8      -0.101000
     14 C14         12.9470    -0.2920     1.6110 ca         1 GC8      -0.091300
     15 C15         12.3500    -0.8910     2.7040 ca         1 GC8      -0.101000
     16 C16         10.9840    -0.7920     2.8880 ca         1 GC8      -0.143000
     17 C17         14.4370    -0.3970     1.4170 c3         1 GC8       0.209100
     18 N18         15.1000     0.7310     2.0870 n3         1 GC8      -0.725600
     19 C19         16.5540     0.5390     2.1240 c3         1 GC8       0.161800
     20 C20         17.1960     1.6550     2.9530 c3         1 GC8      -0.077400
     21 C21         16.8560     3.0090     2.3260 c3         1 GC8      -0.082400
     22 C22         15.3340     3.1630     2.2540 c3         1 GC8      -0.077400
     23 C23         14.7480     2.0030     1.4460 c3         1 GC8       0.161800
     24 C24          3.8090     0.0000    -1.2010 ca         1 GC8       0.008400
     25 Cl2          4.6760     0.0000    -2.7050 cl         1 GC8      -0.069400
     26 C26          2.4270    -0.0050    -1.1990 ca         1 GC8      -0.081000
     27 H03          1.8840     0.0000     2.1360 ha         1 GC8       0.148000
     28 H26          1.8840    -0.0050    -2.1360 ha         1 GC8       0.163000
     29 H04          4.3480     0.0000     2.1400 ha         1 GC8       0.141000
     30 H071         6.2200    -0.8850     1.8280 h1         1 GC8       0.055700
     31 H072         6.2200     0.8840     1.8290 h1         1 GC8       0.055700
     32 H10          8.4460     0.0900     3.0690 hn         1 GC8       0.321500
     33 H12         10.2130     1.0480     0.1520 ha         1 GC8       0.147000
     34 H16         10.5170    -1.2620     3.7450 ha         1 GC8       0.147000
     35 H13         12.6500     0.8730    -0.1610 ha         1 GC8       0.136000
     36 H15         12.9540    -1.4340     3.4210 ha         1 GC8       0.136000
     37 H171        14.7920    -1.3290     1.8420 h1         1 GC8       0.039700
     38 H172        14.6670    -0.3740     0.3580 h1         1 GC8       0.039700
     39 H191        16.9470     0.5700     1.1150 h1         1 GC8       0.034200
     40 H192        16.7800    -0.4190     2.5760 h1         1 GC8       0.034200
     41 H231        15.1530     2.0240     0.4410 h1         1 GC8       0.034200
     42 H232        13.6700     2.1010     1.4070 h1         1 GC8       0.034200
     43 H201        18.2710     1.5220     2.9640 hc         1 GC8       0.048200
     44 H202        16.8120     1.6190     3.9650 hc         1 GC8       0.048200
     45 H211        17.2720     3.0580     1.3270 hc         1 GC8       0.039700
     46 H212        17.2710     3.8030     2.9360 hc         1 GC8       0.039700
     47 H221        15.0890     4.1000     1.7700 hc         1 GC8       0.048200
     48 H222        14.9230     3.1480     3.2560 hc         1 GC8       0.048200
@<TRIPOS>BOND
     1     1     2 1
     2     2     3 ar
     3     2    26 ar
     4     3     4 ar
     5     4     5 ar
     6     5     6 1
     7     5    24 ar
     8     6     7 1
     9     7     8 1
    10     8     9 2
    11     8    10 1
    12    10    11 1
    13    11    12 ar
    14    11    16 ar
    15    12    13 ar
    16    13    14 ar
    17    14    15 ar
    18    14    17 1
    19    15    16 ar
    20    17    18 1
    21    18    19 1
    22    18    23 1
    23    19    20 1
    24    20    21 1
    25    21    22 1
    26    22    23 1
    27    24    25 1
    28    24    26 ar
    29     3    27 1
    30    26    28 1
    31     4    29 1
    32     7    30 1
    33     7    31 1
    34    10    32 1
    35    12    33 1
    36    16    34 1
    37    13    35 1
    38    15    36 1
    39    17    37 1
    40    17    38 1
    41    19    39 1
    42    19    40 1
    43    23    41 1
    44    23    42 1
    45    20    43 1
    46    20    44 1
    47    21    45 1
    48    21    46 1
    49    22    47 1
    50    22    48 1
@<TRIPOS>SUBSTRUCTURE
     1 GC8         1 TEMP              0 ****  ****    0 ROOT
