@<TRIPOS>MOLECULE
GC8
   48    50     1     0     0
SMALL
bcc


@<TRIPOS>ATOM
      1 Cl1          0.0000     0.0000     0.0000 cl         1 GC8      -0.020400
      2 C02          1.7360     0.0000     0.0000 ca         1 GC8      -0.068600
      3 C03          2.4270     0.0000     1.1990 ca         1 GC8      -0.053000
      4 C04          3.8080     0.0000     1.2010 ca         1 GC8      -0.199000
      5 C05          4.5040     0.0000     0.0010 ca         1 GC8       0.150100
      6 O06          5.8630     0.0000     0.0010 os         1 GC8      -0.255900
      7 C07          6.5110    -0.0000     1.2750 c3         1 GC8       0.132400
      8 C08          8.0050    -0.0000     1.0780 c          1 GC8       0.547100
      9 O09          8.4700    -0.0000    -0.0420 o          1 GC8      -0.600100
     10 N10          8.8250    -0.0010     2.1470 ns         1 GC8      -0.031100
     11 C11         10.2090    -0.0980     1.9680 ca         1 GC8      -0.097400
     12 C12         10.8130     0.5020     0.8700 ca         1 GC8      -0.116000
     13 C13         12.1790     0.4040     0.6950 ca         1 GC8      -0.073000
     14 C14         12.9470    -0.2920     1.6110 ca         1 GC8      -0.098300
     15 C15         12.3500    -0.8910     2.7040 ca         1 GC8      -0.073000
     16 C16         10.9840    -0.7920     2.8880 ca         1 GC8      -0.116000
     17 C17         14.4370    -0.3970     1.4170 c3         1 GC8       0.211100
     18 N18         15.1000     0.7310     2.0870 n3         1 GC8      -0.534600
     19 C19         16.5540     0.5390     2.1240 c3         1 GC8       0.146300
     20 C20         17.1960     1.6550     2.9530 c3         1 GC8      -0.023400
     21 C21         16.8560     3.0090     2.3260 c3         1 GC8      -0.027400
     22 C22         15.3340     3.1630     2.2540 c3         1 GC8      -0.023400
     23 C23         14.7480     2.0030     1.4460 c3         1 GC8       0.146300
     24 C24          3.8090     0.0000    -1.2010 ca         1 GC8      -0.069600
     25 Cl2          4.6760     0.0000    -2.7050 cl         1 GC8       0.015600
     26 C26          2.4270    -0.0050    -1.1990 ca         1 GC8      -0.059000
     27 H03          1.8840     0.0000     2.1360 ha         1 GC8       0.114000
     28 H26          1.8840    -0.0050    -2.1360 ha         1 GC8       0.126000
     29 H04          4.3480     0.0000     2.1400 ha         1 GC8       0.120000
     30 H071         6.2200    -0.8850     1.8280 h1         1 GC8       0.015700
     31 H072         6.2200     0.8840     1.8290 h1         1 GC8       0.015700
     32 H10          8.4460     0.0900     3.0690 hn         1 GC8       0.163500
     33 H12         10.2130     1.0480     0.1520 ha         1 GC8       0.125000
     34 H16         10.5170    -1.2620     3.7450 ha         1 GC8       0.125000
     35 H13         12.6500     0.8730    -0.1610 ha         1 GC8       0.109500
     36 H15         12.9540    -1.4340     3.4210 ha         1 GC8       0.109500
     37 H171        14.7920    -1.3290     1.8420 h1         1 GC8       0.012200
     38 H172        14.6670    -0.3740     0.3580 h1         1 GC8       0.012200
     39 H191        16.9470     0.5700     1.1150 h1         1 GC8       0.011200
     40 H192        16.7800    -0.4190     2.5760 h1         1 GC8       0.011200
     41 H231        15.1530     2.0240     0.4410 h1         1 GC8       0.011200
     42 H232        13.6700     2.1010     1.4070 h1         1 GC8       0.011200
     43 H201        18.2710     1.5220     2.9640 hc         1 GC8       0.018700
     44 H202        16.8120     1.6190     3.9650 hc         1 GC8       0.018700
     45 H211        17.2720     3.0580     1.3270 hc         1 GC8       0.012200
     46 H212        17.2710     3.8030     2.9360 hc         1 GC8       0.012200
     47 H221        15.0890     4.1000     1.7700 hc         1 GC8       0.018700
     48 H222        14.9230     3.1480     3.2560 hc         1 GC8       0.018700
@<TRIPOS>BOND
     1     1     2 1   
     2     2     3 ar  
     3     2    26 ar  
     4     3     4 ar  
     5     3    27 1   
     6     4     5 ar  
     7     4    29 1   
     8     5     6 1   
     9     5    24 ar  
    10     6     7 1   
    11     7     8 1   
    12     7    30 1   
    13     7    31 1   
    14     8     9 2   
    15     8    10 1   
    16    10    11 1   
    17    10    32 1   
    18    11    12 ar  
    19    11    16 ar  
    20    12    13 ar  
    21    12    33 1   
    22    13    14 ar  
    23    13    35 1   
    24    14    15 ar  
    25    14    17 1   
    26    15    16 ar  
    27    15    36 1   
    28    16    34 1   
    29    17    18 1   
    30    17    37 1   
    31    17    38 1   
    32    18    19 1   
    33    18    23 1   
    34    19    20 1   
    35    19    39 1   
    36    19    40 1   
    37    20    21 1   
    38    20    43 1   
    39    20    44 1   
    40    21    22 1   
    41    21    45 1   
    42    21    46 1   
    43    22    23 1   
    44    22    47 1   
    45    22    48 1   
    46    23    41 1   
    47    23    42 1   
    48    24    25 1   
    49    24    26 ar  
    50    26    28 1   
@<TRIPOS>SUBSTRUCTURE
     1 GC8         1 TEMP              0 ****  ****    0 ROOT
