@<TRIPOS>MOLECULE
molecule
   50    51     1     0     0
SMALL
bcc


@<TRIPOS>ATOM
      1 C1           0.0000     0.0000     0.0000 ca         1 GCA      -0.094300
      2 C2           1.3820     0.0000     0.0000 ca         1 GCA      -0.114000
      3 C3           2.0730     0.0000     1.1980 ca         1 GCA      -0.079800
      4 C4           1.3820     0.0020     2.3950 ca         1 GCA      -0.122000
      5 C5          -0.0000     0.0030     2.3940 ca         1 GCA      -0.079800
      6 C6          -0.6910     0.0060     1.1970 ca         1 GCA      -0.114000
      7 CP           3.5800    -0.0010     1.1990 c3         1 GCA      -0.046300
      8 CQ          -0.7540     0.0030     3.6990 c3         1 GCA      -0.046300
      9 CG          -0.7530     0.0000    -1.3040 c3         1 GCA       0.000100
     10 C7          -1.1540    -1.4100    -1.6530 cc         1 GCA       0.094400
     11 C12         -2.3540    -1.8900    -1.2660 cd         1 GCA      -0.270400
     12 CF          -3.3030    -1.0250    -0.4770 c3         1 GCA      -0.003500
     13 CH          -4.5740    -0.7840    -1.2950 c3         1 GCA      -0.088100
     14 CI          -3.6650    -1.7270     0.8320 c3         1 GCA      -0.088100
     15 C11         -2.7070    -3.2170    -1.6060 c          1 GCA       0.714700
     16 O11         -3.7830    -3.6730    -1.2630 o          1 GCA      -0.623500
     17 N8          -0.3060    -2.2070    -2.3730 n          1 GCA      -0.381000
     18 C9          -0.6530    -3.4660    -2.6900 c          1 GCA       0.811500
     19 O9           0.1170    -4.1590    -3.3260 o          1 GCA      -0.670500
     20 N10         -1.8420    -3.9710    -2.3110 ns         1 GCA      -0.559500
     21 CA           0.9940    -1.6850    -2.8000 c3         1 GCA       0.288800
     22 OB           1.9580    -1.9080    -1.7690 os         1 GCA      -0.407600
     23 CC           2.3620    -3.2740    -1.8700 c3         1 GCA       0.112400
     24 CD           3.4960    -3.5460    -0.8800 c3         1 GCA      -0.094100
     25 H21          1.9240    -0.0030    -0.9380 ha         1 GCA       0.141000
     26 H41          1.9230     0.0010     3.3330 ha         1 GCA       0.131000
     27 H61         -1.7750     0.0060     1.1970 ha         1 GCA       0.141000
     28 HP1          3.9410     0.1540     0.1890 hc         1 GCA       0.043367
     29 HP2          3.9410     0.7960     1.8370 hc         1 GCA       0.043367
     30 HP3          3.9400    -0.9530     1.5700 hc         1 GCA       0.043367
     31 HQ1         -1.6380     0.6230     3.6060 hc         1 GCA       0.043367
     32 HQ2         -0.1180     0.3970     4.4830 hc         1 GCA       0.043367
     33 HQ3         -1.0470    -1.0100     3.9470 hc         1 GCA       0.043367
     34 HG1         -0.1190     0.4000    -2.0870 hc         1 GCA       0.070200
     35 HG2         -1.6400     0.6150    -1.2090 hc         1 GCA       0.070200
     36 HF1         -2.8290    -0.0760    -0.2580 hc         1 GCA       0.051700
     37 HH1         -5.1090     0.0650    -0.8890 hc         1 GCA       0.041367
     38 HH2         -5.2050    -1.6640    -1.2500 hc         1 GCA       0.041367
     39 HH3         -4.3070    -0.5840    -2.3260 hc         1 GCA       0.041367
     40 HI1         -2.8190    -2.3090     1.1770 hc         1 GCA       0.041367
     41 HI2         -4.5110    -2.3840     0.6680 hc         1 GCA       0.041367
     42 HI3         -3.9230    -0.9870     1.5800 hc         1 GCA       0.041367
     43 HN1         -2.0850    -4.9110    -2.5560 hn         1 GCA       0.362500
     44 HA1          0.9110    -0.6220    -2.9920 h2         1 GCA       0.082200
     45 HA2          1.3080    -2.1920    -3.7040 h2         1 GCA       0.082200
     46 HC1          1.5210    -3.9180    -1.6410 h1         1 GCA       0.044200
     47 HC2          2.7060    -3.4750    -2.8780 h1         1 GCA       0.044200
     48 HD1          4.2510    -2.7760    -0.9760 hc         1 GCA       0.044033
     49 HD2          3.1030    -3.5440     0.1290 hc         1 GCA       0.044033
     50 HD3          3.9380    -4.5120    -1.0940 hc         1 GCA       0.044033
@<TRIPOS>BOND
     1     1     2 ar
     2     1     6 ar
     3     1     9 1
     4     2     3 ar
     5     2    25 1
     6     3     4 ar
     7     3     7 1
     8     4     5 ar
     9     4    26 1
    10     5     6 ar
    11     5     8 1
    12     6    27 1
    13     7    28 1
    14     7    29 1
    15     7    30 1
    16     8    31 1
    17     8    32 1
    18     8    33 1
    19     9    10 1
    20     9    34 1
    21     9    35 1
    22    10    11 2
    23    10    17 1
    24    11    12 1
    25    11    15 1
    26    12    13 1
    27    12    14 1
    28    12    36 1
    29    13    37 1
    30    13    38 1
    31    13    39 1
    32    14    40 1
    33    14    41 1
    34    14    42 1
    35    15    16 2
    36    15    20 1
    37    17    18 1
    38    17    21 1
    39    18    19 2
    40    18    20 1
    41    20    43 1
    42    21    22 1
    43    21    44 1
    44    21    45 1
    45    22    23 1
    46    23    24 1
    47    23    46 1
    48    23    47 1
    49    24    48 1
    50    24    49 1
    51    24    50 1
@<TRIPOS>SUBSTRUCTURE
     1 GCA         1 TEMP              0 ****  ****    0 ROOT
