@<TRIPOS>MOLECULE
molecule
   20    20     1     0     0
SMALL
bcc


@<TRIPOS>ATOM
      1 C1           0.0000     0.0000     0.0000 c          1 GCB       0.715600
      2 C2           1.5140     0.0000     0.0000 c3         1 GCB       0.025100
      3 C3           1.9980     0.0000     1.4540 c3         1 GCB       0.115100
      4 C4           1.3450     1.1650     2.2020 c3         1 GCB       0.127100
      5 C5          -0.1770     0.9890     2.1870 c3         1 GCB       0.053100
      6 C6          -0.8290     2.1780     2.8460 c          1 GCB       0.896600
      7 O1          -0.6250    -0.7650    -0.6940 o          1 GCB      -0.585500
      8 O2           1.9950    -1.1680    -0.6710 oh         1 GCB      -0.590800
      9 O3           3.4190     0.1500     1.4860 oh         1 GCB      -0.611800
     10 O4           1.8080     1.1860     3.5530 oh         1 GCB      -0.564800
     11 O5          -0.6270     0.8870     0.8050 os         1 GCB      -0.399900
     12 O6A         -0.6290     2.4160     4.1510 o          1 GCB      -0.810800
     13 O6B         -1.5320     2.9180     2.1980 o          1 GCB      -0.810800
     14 HC2          1.8760     0.8890    -0.5020 h1         1 GCB       0.065700
     15 HC3          1.7170    -0.9330     1.9270 h1         1 GCB       0.057700
     16 HC4          1.6030     2.0960     1.7120 h1         1 GCB       0.052700
     17 HC5         -0.4410     0.0840     2.7210 h1         1 GCB       0.059700
     18 HO2          2.2830    -0.9360    -1.5380 ho         1 GCB       0.401000
     19 HO3          3.8100    -0.6360     1.8310 ho         1 GCB       0.402000
     20 HO4          2.4360     1.8820     3.6600 ho         1 GCB       0.402000
@<TRIPOS>BOND
     1     1     2 1
     2     1     7 2
     3     1    11 1
     4     2     3 1
     5     2     8 1
     6     2    14 1
     7     3     4 1
     8     3     9 1
     9     3    15 1
    10     4     5 1
    11     4    10 1
    12     4    16 1
    13     5     6 1
    14     5    11 1
    15     5    17 1
    16     6    12 1
    17     6    13 1
    18     8    18 1
    19     9    19 1
    20    10    20 1
@<TRIPOS>SUBSTRUCTURE
     1 GCB         1 TEMP              0 ****  ****    0 ROOT
