@<TRIPOS>MOLECULE
GCF
   62    65     1     0     0
SMALL
bcc


@<TRIPOS>ATOM
      1 O61          0.0000     0.0000     0.0000 o          1 GCF      -0.891800
      2 C51          1.3420     0.0000     0.0000 c          1 GCF       0.976600
      3 O58          1.9460     0.0000     1.0460 o          1 GCF      -0.891800
      4 C50          2.0960     0.0010    -1.3060 c3         1 GCF      -0.131400
      5 C49          3.6000     0.0020    -1.0260 c3         1 GCF       0.024900
      6 C42          4.3520     0.0030    -2.3320 ca         1 GCF      -0.036300
      7 C41          4.6960     1.2000    -2.9280 ca         1 GCF      -0.080000
      8 C43          4.7030    -1.1950    -2.9280 ca         1 GCF      -0.074000
      9 C44          5.3950    -1.2020    -4.1260 ca         1 GCF      -0.106000
     10 C45          5.7390    -0.0110    -4.7330 ca         1 GCF      -0.131000
     11 C34          5.3930     1.1990    -4.1340 cp         1 GCF      -0.084000
     12 C20          5.7600     2.4830    -4.7830 cp         1 GCF       0.025000
     13 C19          5.4140     3.6920    -4.1850 ca         1 GCF      -0.031000
     14 C18          5.7580     4.8830    -4.7920 ca         1 GCF      -0.188300
     15 C35          5.3850     6.1920    -4.1460 c3         1 GCF       0.641200
     16 F48          6.5450     6.9270    -3.8760 f          1 GCF      -0.202633
     17 F47          4.5620     6.9210    -5.0100 f          1 GCF      -0.202633
     18 F46          4.7020     5.9440    -2.9500 f          1 GCF      -0.202633
     19 C17          6.4450     4.8760    -5.9920 ca         1 GCF      -0.081000
     20 C21          6.4560     2.4820    -5.9890 ca         1 GCF      -0.097000
     21 C16          6.7910     3.6790    -6.5910 ca         1 GCF      -0.135300
     22 C4           7.5440     3.6800    -7.8960 c3         1 GCF       0.180800
     23 C14          7.9170     5.1140    -8.2760 c3         1 GCF      -0.060700
     24 C36          8.8910     5.6790    -7.2390 c3         1 GCF      -0.018600
     25 C15          8.5800     5.1210    -9.6540 c3         1 GCF      -0.018600
     26 C3           8.7930     2.8470    -7.7640 ce         1 GCF       0.166100
     27 C8           9.6400     3.0600    -6.6280 cg         1 GCF       0.081500
     28 N9          10.3040     3.2120    -5.7190 n1         1 GCF      -0.233800
     29 C2           9.1520     1.9090    -8.6640 c2         1 GCF      -0.156900
     30 N7          10.3160     1.2160    -8.4380 nz         1 GCF       0.280600
     31 C5           6.6870     3.0740    -8.9790 cc         1 GCF      -0.390600
     32 C10          5.4100     3.3290    -9.3030 cd         1 GCF      -0.159600
     33 C13          4.5030     4.3240    -8.6270 c3         1 GCF       0.074200
     34 N11          5.0860     2.5320   -10.3470 na         1 GCF       0.483400
     35 N12          6.2120     1.7590   -10.6720 nd         1 GCF      -0.614800
     36 C6           7.1730     2.0790    -9.8550 cc         1 GCF       0.563600
     37 O1           8.4460     1.6040    -9.7720 os         1 GCF      -0.265400
     38 H2           1.8570    -0.8980    -1.8610 hc         1 GCF       0.006200
     39 H3           1.8100     0.8710    -1.8860 hc         1 GCF       0.006200
     40 H4           3.8620    -0.8830    -0.4600 hc         1 GCF       0.034700
     41 H5           3.8610     0.8860    -0.4560 hc         1 GCF       0.034700
     42 H6           4.3940     2.1370    -2.4750 ha         1 GCF       0.122000
     43 H7           4.3860    -2.1320    -2.4870 ha         1 GCF       0.121000
     44 H8           5.6670    -2.1420    -4.5890 ha         1 GCF       0.096000
     45 H9           6.3000    -0.0180    -5.6600 ha         1 GCF       0.080000
     46 H10          4.9320     3.6980    -3.2140 ha         1 GCF       0.154000
     47 H11          6.6720     5.8110    -6.4910 ha         1 GCF       0.136000
     48 H12          6.7360     1.5440    -6.4520 ha         1 GCF       0.110000
     49 H13          7.0410     5.7470    -8.2030 hc         1 GCF       0.065700
     50 H14          8.8440     6.7610    -7.2510 hc         1 GCF       0.015367
     51 H15          8.6220     5.3160    -6.2550 hc         1 GCF       0.015367
     52 H16          9.8990     5.3590    -7.4780 hc         1 GCF       0.015367
     53 H17          7.8430     4.8780   -10.4100 hc         1 GCF       0.015367
     54 H18          9.3760     4.3860    -9.6760 hc         1 GCF       0.015367
     55 H19          8.9900     6.1040    -9.8530 hc         1 GCF       0.015367
     56 H20         11.0810     1.8590    -8.3800 hn         1 GCF       0.222133
     57 H21         10.2400     0.7080    -7.5790 hn         1 GCF       0.222133
     58 H22          4.3730     4.0460    -7.5880 hc         1 GCF       0.031033
     59 H23          4.9440     5.3120    -8.6840 hc         1 GCF       0.031033
     60 H24          3.5400     4.3290    -9.1220 hc         1 GCF       0.031033
     61 H25          4.1990     2.5000   -10.8090 hn         1 GCF       0.170700
     62 H73         10.3230     0.3850    -8.9960 hn         1 GCF       0.222133
@<TRIPOS>BOND
     1     1     2 1   
     2     2     3 1   
     3     2     4 1   
     4     4     5 1   
     5     4    38 1   
     6     4    39 1   
     7     5     6 1   
     8     5    40 1   
     9     5    41 1   
    10     6     7 ar  
    11     6     8 ar  
    12     7    11 ar  
    13     7    42 1   
    14     8     9 ar  
    15     8    43 1   
    16     9    10 ar  
    17     9    44 1   
    18    10    11 ar  
    19    10    45 1   
    20    11    12 1   
    21    12    13 ar  
    22    12    20 ar  
    23    13    14 ar  
    24    13    46 1   
    25    14    15 1   
    26    14    19 ar  
    27    15    16 1   
    28    15    17 1   
    29    15    18 1   
    30    19    21 ar  
    31    19    47 1   
    32    20    21 ar  
    33    20    48 1   
    34    21    22 1   
    35    22    23 1   
    36    22    26 1   
    37    22    31 1   
    38    23    24 1   
    39    23    25 1   
    40    23    49 1   
    41    24    50 1   
    42    24    51 1   
    43    24    52 1   
    44    25    53 1   
    45    25    54 1   
    46    25    55 1   
    47    26    27 1   
    48    26    29 2   
    49    27    28 3   
    50    29    30 1   
    51    29    37 1   
    52    30    56 1   
    53    30    57 1   
    54    30    62 1   
    55    31    32 2   
    56    31    36 1   
    57    32    33 1   
    58    32    34 1   
    59    33    58 1   
    60    33    59 1   
    61    33    60 1   
    62    34    35 1   
    63    34    61 1   
    64    35    36 2   
    65    36    37 1   
@<TRIPOS>SUBSTRUCTURE
     1 GCF         1 TEMP              0 ****  ****    0 ROOT
