@<TRIPOS>MOLECULE
molecule
   62    65     1     0     0
SMALL
bcc


@<TRIPOS>ATOM
      1 O61          0.0000     0.0000     0.0000 o          1 GCF      -0.842300
      2 C51          1.3420     0.0000     0.0000 c          1 GCF       0.889600
      3 O58          1.9460     0.0000     1.0460 o          1 GCF      -0.842300
      4 C50          2.0960     0.0010    -1.3060 c3         1 GCF      -0.180400
      5 C49          3.6000     0.0020    -1.0260 c3         1 GCF      -0.034100
      6 C42          4.3520     0.0030    -2.3320 ca         1 GCF      -0.037300
      7 C41          4.6960     1.2000    -2.9280 ca         1 GCF      -0.106000
      8 C43          4.7030    -1.1950    -2.9280 ca         1 GCF      -0.106000
      9 C44          5.3950    -1.2020    -4.1260 ca         1 GCF      -0.133000
     10 C45          5.7390    -0.0110    -4.7330 ca         1 GCF      -0.148000
     11 C34          5.3930     1.1990    -4.1340 cp         1 GCF      -0.077000
     12 C20          5.7600     2.4830    -4.7830 cp         1 GCF       0.009000
     13 C19          5.4140     3.6920    -4.1850 ca         1 GCF      -0.062000
     14 C18          5.7580     4.8830    -4.7920 ca         1 GCF      -0.168300
     15 C35          5.3850     6.1920    -4.1460 c3         1 GCF       0.675200
     16 F48          6.5450     6.9270    -3.8760 f          1 GCF      -0.217633
     17 F47          4.5620     6.9210    -5.0100 f          1 GCF      -0.217633
     18 F46          4.7020     5.9440    -2.9500 f          1 GCF      -0.217633
     19 C17          6.4450     4.8760    -5.9920 ca         1 GCF      -0.100000
     20 C21          6.4560     2.4820    -5.9890 ca         1 GCF      -0.110000
     21 C16          6.7910     3.6790    -6.5910 ca         1 GCF      -0.120300
     22 C4           7.5440     3.6800    -7.8960 c3         1 GCF       0.147800
     23 C14          7.9170     5.1140    -8.2760 c3         1 GCF      -0.070700
     24 C36          8.8910     5.6790    -7.2390 c3         1 GCF      -0.098600
     25 C15          8.5800     5.1210    -9.6540 c3         1 GCF      -0.098600
     26 C3           8.7930     2.8470    -7.7640 ce         1 GCF       0.074100
     27 C8           9.6400     3.0600    -6.6280 cg         1 GCF       0.125500
     28 N9          10.3040     3.2120    -5.7190 n1         1 GCF      -0.250800
     29 C2           9.1520     1.9090    -8.6640 c2         1 GCF       0.099100
     30 N7          10.3160     1.2160    -8.4380 nz         1 GCF      -0.666400
     31 C5           6.6870     3.0740    -8.9790 cd         1 GCF      -0.369600
     32 C10          5.4100     3.3290    -9.3030 cc         1 GCF       0.019400
     33 C13          4.5030     4.3240    -8.6270 c3         1 GCF      -0.040800
     34 N11          5.0860     2.5320   -10.3470 na         1 GCF      -0.020600
     35 N12          6.2120     1.7590   -10.6720 nc         1 GCF      -0.460800
     36 C6           7.1730     2.0790    -9.8550 cd         1 GCF       0.546600
     37 O1           8.4460     1.6040    -9.7720 os         1 GCF      -0.305400
     38 H2           1.8570    -0.8980    -1.8610 hc         1 GCF       0.031700
     39 H3           1.8100     0.8710    -1.8860 hc         1 GCF       0.031700
     40 H4           3.8620    -0.8830    -0.4600 hc         1 GCF       0.064700
     41 H5           3.8610     0.8860    -0.4560 hc         1 GCF       0.064700
     42 H6           4.3940     2.1370    -2.4750 ha         1 GCF       0.143000
     43 H7           4.3860    -2.1320    -2.4870 ha         1 GCF       0.149000
     44 H8           5.6670    -2.1420    -4.5890 ha         1 GCF       0.121000
     45 H9           6.3000    -0.0180    -5.6600 ha         1 GCF       0.096000
     46 H10          4.9320     3.6980    -3.2140 ha         1 GCF       0.181000
     47 H11          6.6720     5.8110    -6.4910 ha         1 GCF       0.149000
     48 H12          6.7360     1.5440    -6.4520 ha         1 GCF       0.130000
     49 H13          7.0410     5.7470    -8.2030 hc         1 GCF       0.084700
     50 H14          8.8440     6.7610    -7.2510 hc         1 GCF       0.044200
     51 H15          8.6220     5.3160    -6.2550 hc         1 GCF       0.044200
     52 H16          9.8990     5.3590    -7.4780 hc         1 GCF       0.044200
     53 H17          7.8430     4.8780   -10.4100 hc         1 GCF       0.044200
     54 H18          9.3760     4.3860    -9.6760 hc         1 GCF       0.044200
     55 H19          8.9900     6.1040    -9.8530 hc         1 GCF       0.044200
     56 H20         11.0810     1.8590    -8.3800 hn         1 GCF       0.476467
     57 H21         10.2400     0.7080    -7.5790 hn         1 GCF       0.476467
     58 H22          4.3730     4.0460    -7.5880 hc         1 GCF       0.072367
     59 H23          4.9440     5.3120    -8.6840 hc         1 GCF       0.072367
     60 H24          3.5400     4.3290    -9.1220 hc         1 GCF       0.072367
     61 H25          4.1990     2.5000   -10.8090 hn         1 GCF       0.360700
     62 H73         10.3230     0.3850    -8.9960 hn         1 GCF       0.476467
@<TRIPOS>BOND
     1     9     8 ar
     2     9    10 ar
     3     8     6 ar
     4     3     2 1
     5    34    35 1
     6    34    32 1
     7    10    11 ar
     8    35    36 2
     9     6     5 1
    10     6     7 ar
    11    33    32 1
    12     5     4 1
    13    32    31 2
    14     2     1 1
    15     2     4 1
    16    11     7 ar
    17    11    12 1
    18    36    31 1
    19    36    37 1
    20    31    22 1
    21    20    12 ar
    22    20    21 ar
    23    12    13 ar
    24    37    29 1
    25    22    21 1
    26    22    23 1
    27    22    26 1
    28    21    19 ar
    29    13    14 ar
    30    25    23 1
    31    29    26 2
    32    29    30 1
    33    24    23 1
    34    26    27 1
    35    19    14 ar
    36    14    15 1
    37    27    28 3
    38    17    15 1
    39    15    18 1
    40    15    16 1
    41     4    38 1
    42     4    39 1
    43     5    40 1
    44     5    41 1
    45     7    42 1
    46     8    43 1
    47     9    44 1
    48    10    45 1
    49    13    46 1
    50    19    47 1
    51    20    48 1
    52    23    49 1
    53    24    50 1
    54    24    51 1
    55    24    52 1
    56    25    53 1
    57    25    54 1
    58    25    55 1
    59    30    56 1
    60    30    57 1
    61    33    58 1
    62    33    59 1
    63    33    60 1
    64    34    61 1
    65    62    30 1
@<TRIPOS>SUBSTRUCTURE
     1 GCF         1 TEMP              0 ****  ****    0 ROOT
