@<TRIPOS>MOLECULE
GCG
   97    96     1     0     0
SMALL
bcc


@<TRIPOS>ATOM
      1 C1           0.0000     0.0000     0.0000 c          1 GCG       0.948600
      2 CA1          1.5070     0.0000     0.0000 c3         1 GCG      -0.124500
      3 O11         -0.6720    -1.1620     0.0010 o          1 GCG      -0.810800
      4 O21         -0.6040     1.0470     0.0000 o          1 GCG      -0.810800
      5 CB1          2.0170     0.0000     1.4410 c3         1 GCG      -0.145400
      6 N1           1.9960     1.1990    -0.6930 nz         1 GCG       0.042400
      7 CG1          3.5470     0.0000     1.4420 c3         1 GCG      -0.062400
      8 CD1          4.0510    -0.0010     2.8620 c          1 GCG       0.575100
      9 OD1          3.2630    -0.0000     3.7830 o          1 GCG      -0.606100
     10 N2           5.3750    -0.0000     3.1080 ns         1 GCG      -0.179900
     11 CA2          5.8640    -0.0000     4.4880 c3         1 GCG       0.039700
     12 C2           7.1910     0.7100     4.5510 c          1 GCG       0.557100
     13 O2           7.6820     1.1700     3.5420 o          1 GCG      -0.654100
     14 CB2          6.0340    -1.4430     4.9690 c3         1 GCG      -0.116300
     15 SG2          4.4360    -2.2980     4.8930 sh         1 GCG      -0.327900
     16 N3           7.8360     0.8330     5.7280 ns         1 GCG      -0.171900
     17 CA3          9.1260     1.5230     5.7900 c3         1 GCG      -0.021000
     18 C3           9.6290     1.5230     7.2110 c          1 GCG       0.561100
     19 O3           8.9740     0.9980     8.0850 o          1 GCG      -0.652100
     20 N1S         10.8070     2.1060     7.5090 ns         1 GCG      -0.180900
     21 C2S         11.2960     2.1060     8.8890 c3         1 GCG       0.048000
     22 C3S         12.6440     2.8260     8.9540 c3         1 GCG      -0.040400
     23 C4S         13.1550     2.8270    10.3950 c3         1 GCG      -0.024400
     24 C5S         14.5030     3.5480    10.4590 c3         1 GCG       0.136800
     25 C7S         16.2820     4.2500    11.8350 c3         1 GCG       0.143800
     26 N6S         14.9920     3.5480    11.8440 n7         1 GCG      -0.576200
     27 C8S         16.8530     4.2880    13.2540 c3         1 GCG      -0.044400
     28 C9S         18.1950     5.0200    13.2450 c3         1 GCG       0.049000
     29 N11         18.7420     5.0560    14.6040 ns         1 GCG      -0.180900
     30 C5          19.9260     5.6550    14.8390 c          1 GCG       0.560100
     31 N5          21.7740     6.3920    16.2270 ns         1 GCG      -0.170900
     32 CA5         20.4880     5.6900    16.2360 c3         1 GCG      -0.021000
     33 O5          20.5400     6.1630    13.9250 o          1 GCG      -0.652100
     34 C6          22.4660     6.5470    17.3740 c          1 GCG       0.564100
     35 N6          24.3340     7.3030    18.7250 ns         1 GCG      -0.178900
     36 CA6         23.7880     7.2680    17.3660 c3         1 GCG      -0.040300
     37 O6          22.0230     6.1050    18.4130 o          1 GCG      -0.663100
     38 CB6         24.7630     6.5330    16.4440 c3         1 GCG       0.064700
     39 SG6         26.3550     7.4020    16.4320 sh         1 GCG      -0.348900
     40 CD7         25.1190     8.3290    19.1090 c          1 GCG       0.571100
     41 C7          27.9370    10.9040    22.2750 c          1 GCG       0.948600
     42 CA7         27.1010     9.6630    22.1020 c3         1 GCG      -0.124500
     43 CB7         26.5300     9.6260    20.6830 c3         1 GCG      -0.143400
     44 N7          25.9980     9.6750    23.0720 nz         1 GCG       0.042400
     45 CG7         25.6820     8.3660    20.5060 c3         1 GCG      -0.063400
     46 OD7         25.3730     9.2230    18.3300 o          1 GCG      -0.592100
     47 HA1          1.8670    -0.8850    -0.5110 hx         1 GCG       0.067700
     48 HB11         1.4380    -0.3590     2.2840 hc         1 GCG       0.097700
     49 HB12         2.1570    -0.8910     0.8410 hc         1 GCG       0.097700
     50 HN11         1.3710     1.4310    -1.4400 hn         1 GCG       0.214800
     51 HN12         2.9080     1.0210    -1.0640 hn         1 GCG       0.214800
     52 HG11         3.9080    -0.8840     0.9300 hc         1 GCG       0.007200
     53 HG12         3.9080     0.8850     0.9320 hc         1 GCG       0.007200
     54 H2           6.0250    -0.0180     2.3470 hn         1 GCG       0.194500
     55 HA2          5.1510     0.5110     5.1230 h1         1 GCG       0.070700
     56 HB21         6.8340    -1.7680     5.6230 h1         1 GCG       0.092700
     57 HB22         5.4750    -0.7510     5.5880 h1         1 GCG       0.092700
     58 HG2          4.5790    -3.5420     5.3320 hs         1 GCG       0.180800
     59 H3           7.4250     0.4650     6.5640 hn         1 GCG       0.206500
     60 HA31         9.8390     1.0120     5.1550 h1         1 GCG       0.040700
     61 HA32         9.0060     2.5440     5.4500 h1         1 GCG       0.040700
     62 HNS1        11.3470     2.5400     6.7870 hn         1 GCG       0.177500
     63 H2S1        10.5830     2.6180     9.5240 h1         1 GCG       0.031200
     64 H2S2        11.4150     1.0850     9.2290 h1         1 GCG       0.031200
     65 H3S1        13.3570     2.3150     8.3180 hc         1 GCG       0.017700
     66 H3S2        12.5240     3.8470     8.6130 hc         1 GCG       0.017700
     67 H4S1        13.2750     1.8060    10.7360 hc         1 GCG       0.024700
     68 H4S2        12.4420     3.3380    11.0310 hc         1 GCG       0.024700
     69 H5S1        15.2160     3.0360     9.8240 h1         1 GCG       0.010200
     70 H5S2        14.3830     4.5690    10.1190 h1         1 GCG       0.010200
     71 H7S1        16.1390     5.2620    11.4760 h1         1 GCG       0.012700
     72 H7S2        16.9720     3.7300    11.1820 h1         1 GCG       0.012700
     73 HNS6        15.1280     2.6050    12.1500 hn         1 GCG       0.254800
     74 H8S1        16.1620     4.8080    13.9070 hc         1 GCG       0.023200
     75 H8S2        16.9960     3.2760    13.6130 hc         1 GCG       0.023200
     76 H9S1        18.8860     4.5000    12.5920 h1         1 GCG       0.029700
     77 H9S2        18.0520     6.0320    12.8870 h1         1 GCG       0.029700
     78 H10S        18.2300     4.6460    15.3610 hn         1 GCG       0.178500
     79 H5          22.1190     6.7930    15.3770 hn         1 GCG       0.210500
     80 HA51        20.6310     4.6780    16.5940 h1         1 GCG       0.040200
     81 HA52        19.7980     6.2100    16.8900 h1         1 GCG       0.040200
     82 H6          24.1390     6.5570    19.3620 hn         1 GCG       0.190500
     83 HA6         23.6450     8.2810    17.0080 h1         1 GCG       0.084700
     84 HB61        24.3550     6.3800    15.4520 h1         1 GCG       0.041700
     85 HB62        24.7540     5.6300    17.0420 h1         1 GCG       0.041700
     86 HG6         27.1420     6.8710    15.5040 hs         1 GCG       0.180800
     87 HA7         27.7170     8.7870    22.2660 hx         1 GCG       0.066700
     88 HB71        26.9730    10.1470    19.8430 hc         1 GCG       0.097700
     89 HB72        27.2910     8.9050    20.9550 hc         1 GCG       0.097700
     90 HN71        25.2280    10.1910    22.6950 hn         1 GCG       0.215133
     91 HN72        25.7100     8.7360    23.2620 hn         1 GCG       0.215133
     92 HG71        26.2980     7.4900    20.6700 hc         1 GCG       0.006200
     93 HG72        24.8690     8.3740    21.2220 hc         1 GCG       0.006200
     94 O27         29.2480    10.8750    21.9910 o          1 GCG      -0.810800
     95 H13          2.0420     1.9620    -0.0480 hn         1 GCG       0.214800
     96 H73         26.3060    10.1060    23.9210 hn         1 GCG       0.215133
     97 O17         27.4270    11.9260    22.6700 o          1 GCG      -0.810800
@<TRIPOS>BOND
     1     1     2 1   
     2     1     3 1   
     3     1     4 1   
     4     2     5 1   
     5     2     6 1   
     6     2    47 1   
     7     5     7 1   
     8     5    48 1   
     9     5    49 1   
    10     6    50 1   
    11     6    51 1   
    12     6    95 1   
    13     7     8 1   
    14     7    52 1   
    15     7    53 1   
    16     8     9 2   
    17     8    10 1   
    18    10    11 1   
    19    10    54 1   
    20    11    12 1   
    21    11    14 1   
    22    11    55 1   
    23    12    13 2   
    24    12    16 1   
    25    14    15 1   
    26    14    56 1   
    27    14    57 1   
    28    15    58 1   
    29    16    17 1   
    30    16    59 1   
    31    17    18 1   
    32    17    60 1   
    33    17    61 1   
    34    18    19 2   
    35    18    20 1   
    36    20    21 1   
    37    20    62 1   
    38    21    22 1   
    39    21    63 1   
    40    21    64 1   
    41    22    23 1   
    42    22    65 1   
    43    22    66 1   
    44    23    24 1   
    45    23    67 1   
    46    23    68 1   
    47    24    26 1   
    48    24    69 1   
    49    24    70 1   
    50    25    26 1   
    51    25    27 1   
    52    25    71 1   
    53    25    72 1   
    54    26    73 1   
    55    27    28 1   
    56    27    74 1   
    57    27    75 1   
    58    28    29 1   
    59    28    76 1   
    60    28    77 1   
    61    29    30 1   
    62    29    78 1   
    63    30    32 1   
    64    30    33 2   
    65    31    32 1   
    66    31    34 1   
    67    31    79 1   
    68    32    80 1   
    69    32    81 1   
    70    34    36 1   
    71    34    37 2   
    72    35    36 1   
    73    35    40 1   
    74    35    82 1   
    75    36    38 1   
    76    36    83 1   
    77    38    39 1   
    78    38    84 1   
    79    38    85 1   
    80    39    86 1   
    81    40    45 1   
    82    40    46 2   
    83    41    42 1   
    84    41    94 1   
    85    41    97 1   
    86    42    43 1   
    87    42    44 1   
    88    42    87 1   
    89    43    45 1   
    90    43    88 1   
    91    43    89 1   
    92    44    90 1   
    93    44    91 1   
    94    44    96 1   
    95    45    92 1   
    96    45    93 1   
@<TRIPOS>SUBSTRUCTURE
     1 GCG         1 TEMP              0 ****  ****    0 ROOT
