@<TRIPOS>MOLECULE
molecule
   97    96     1     0     0
SMALL
bcc


@<TRIPOS>ATOM
      1 C1           0.0000     0.0000     0.0000 c          1 GCG       0.864600
      2 CA1          1.5070     0.0000     0.0000 c3         1 GCG       0.033500
      3 O11         -0.6720    -1.1620     0.0010 o          1 GCG      -0.766800
      4 O21         -0.6040     1.0470     0.0000 o          1 GCG      -0.766800
      5 CB1          2.0170     0.0000     1.4410 c3         1 GCG      -0.178400
      6 N1           1.9960     1.1990    -0.6930 nz         1 GCG      -0.803600
      7 CG1          3.5470     0.0000     1.4420 c3         1 GCG      -0.140400
      8 CD1          4.0510    -0.0010     2.8620 c          1 GCG       0.668100
      9 OD1          3.2630    -0.0000     3.7830 o          1 GCG      -0.573100
     10 N2           5.3750    -0.0000     3.1080 ns         1 GCG      -0.569900
     11 CA2          5.8640    -0.0000     4.4880 c3         1 GCG       0.114700
     12 C2           7.1910     0.7100     4.5510 c          1 GCG       0.652100
     13 O2           7.6820     1.1700     3.5420 o          1 GCG      -0.610100
     14 CB2          6.0340    -1.4430     4.9690 c3         1 GCG      -0.125300
     15 SG2          4.4360    -2.2980     4.8930 sh         1 GCG      -0.340900
     16 N3           7.8360     0.8330     5.7280 ns         1 GCG      -0.571900
     17 CA3          9.1260     1.5230     5.7900 c3         1 GCG       0.038000
     18 C3           9.6290     1.5230     7.2110 c          1 GCG       0.648100
     19 O3           8.9740     0.9980     8.0850 o          1 GCG      -0.611100
     20 N1S         10.8070     2.1060     7.5090 ns         1 GCG      -0.580900
     21 C2S         11.2960     2.1060     8.8890 c3         1 GCG       0.112000
     22 C3S         12.6440     2.8260     8.9540 c3         1 GCG      -0.102400
     23 C4S         13.1550     2.8270    10.3950 c3         1 GCG      -0.079400
     24 C5S         14.5030     3.5480    10.4590 c3         1 GCG       0.146800
     25 C7S         16.2820     4.2500    11.8350 c3         1 GCG       0.150800
     26 N6S         14.9920     3.5480    11.8440 n7         1 GCG      -0.798200
     27 C8S         16.8530     4.2880    13.2540 c3         1 GCG      -0.103400
     28 C9S         18.1950     5.0200    13.2450 c3         1 GCG       0.112000
     29 N11         18.7420     5.0560    14.6040 ns         1 GCG      -0.580900
     30 C5          19.9260     5.6550    14.8390 c          1 GCG       0.648100
     31 N5          21.7740     6.3920    16.2270 ns         1 GCG      -0.569900
     32 CA5         20.4880     5.6900    16.2360 c3         1 GCG       0.038000
     33 O5          20.5400     6.1630    13.9250 o          1 GCG      -0.612100
     34 C6          22.4660     6.5470    17.3740 c          1 GCG       0.655100
     35 N6          24.3340     7.3030    18.7250 ns         1 GCG      -0.572900
     36 CA6         23.7880     7.2680    17.3660 c3         1 GCG       0.053700
     37 O6          22.0230     6.1050    18.4130 o          1 GCG      -0.617100
     38 CB6         24.7630     6.5330    16.4440 c3         1 GCG       0.000700
     39 SG6         26.3550     7.4020    16.4320 sh         1 GCG      -0.343900
     40 CD7         25.1190     8.3290    19.1090 c          1 GCG       0.666100
     41 C7          27.9370    10.9040    22.2750 c          1 GCG       0.864600
     42 CA7         27.1010     9.6630    22.1020 c3         1 GCG       0.033500
     43 CB7         26.5300     9.6260    20.6830 c3         1 GCG      -0.177400
     44 N7          25.9980     9.6750    23.0720 nz         1 GCG      -0.803600
     45 CG7         25.6820     8.3660    20.5060 c3         1 GCG      -0.140400
     46 OD7         25.3730     9.2230    18.3300 o          1 GCG      -0.561100
     47 HA1          1.8670    -0.8850    -0.5110 hx         1 GCG       0.081700
     48 HB11         1.4380    -0.3590     2.2840 hc         1 GCG       0.125700
     49 HB12         2.1570    -0.8910     0.8410 hc         1 GCG       0.125700
     50 HN11         1.3710     1.4310    -1.4400 hn         1 GCG       0.437467
     51 HN12         2.9080     1.0210    -1.0640 hn         1 GCG       0.437467
     52 HG11         3.9080    -0.8840     0.9300 hc         1 GCG       0.041200
     53 HG12         3.9080     0.8850     0.9320 hc         1 GCG       0.041200
     54 H2           6.0250    -0.0180     2.3470 hn         1 GCG       0.333500
     55 HA2          5.1510     0.5110     5.1230 h1         1 GCG       0.096700
     56 HB21         6.8340    -1.7680     5.6230 h1         1 GCG       0.106700
     57 HB22         5.4750    -0.7510     5.5880 h1         1 GCG       0.106700
     58 HG2          4.5790    -3.5420     5.3320 hs         1 GCG       0.198800
     59 H3           7.4250     0.4650     6.5640 hn         1 GCG       0.343500
     60 HA31         9.8390     1.0120     5.1550 h1         1 GCG       0.073700
     61 HA32         9.0060     2.5440     5.4500 h1         1 GCG       0.073700
     62 HNS1        11.3470     2.5400     6.7870 hn         1 GCG       0.317500
     63 H2S1        10.5830     2.6180     9.5240 h1         1 GCG       0.058200
     64 H2S2        11.4150     1.0850     9.2290 h1         1 GCG       0.058200
     65 H3S1        13.3570     2.3150     8.3180 hc         1 GCG       0.046700
     66 H3S2        12.5240     3.8470     8.6130 hc         1 GCG       0.046700
     67 H4S1        13.2750     1.8060    10.7360 hc         1 GCG       0.054200
     68 H4S2        12.4420     3.3380    11.0310 hc         1 GCG       0.054200
     69 H5S1        15.2160     3.0360     9.8240 h1         1 GCG       0.035700
     70 H5S2        14.3830     4.5690    10.1190 h1         1 GCG       0.035700
     71 H7S1        16.1390     5.2620    11.4760 h1         1 GCG       0.038700
     72 H7S2        16.9720     3.7300    11.1820 h1         1 GCG       0.038700
     73 HNS6        15.1280     2.6050    12.1500 hn         1 GCG       0.351800
     74 H8S1        16.1620     4.8080    13.9070 hc         1 GCG       0.054200
     75 H8S2        16.9960     3.2760    13.6130 hc         1 GCG       0.054200
     76 H9S1        18.8860     4.5000    12.5920 h1         1 GCG       0.056700
     77 H9S2        18.0520     6.0320    12.8870 h1         1 GCG       0.056700
     78 H10S        18.2300     4.6460    15.3610 hn         1 GCG       0.318500
     79 H5          22.1190     6.7930    15.3770 hn         1 GCG       0.346500
     80 HA51        20.6310     4.6780    16.5940 h1         1 GCG       0.073200
     81 HA52        19.7980     6.2100    16.8900 h1         1 GCG       0.073200
     82 H6          24.1390     6.5570    19.3620 hn         1 GCG       0.330500
     83 HA6         23.6450     8.2810    17.0080 h1         1 GCG       0.111700
     84 HB61        24.3550     6.3800    15.4520 h1         1 GCG       0.068200
     85 HB62        24.7540     5.6300    17.0420 h1         1 GCG       0.068200
     86 HG6         27.1420     6.8710    15.5040 hs         1 GCG       0.198800
     87 HA7         27.7170     8.7870    22.2660 hx         1 GCG       0.081700
     88 HB71        26.9730    10.1470    19.8430 hc         1 GCG       0.125200
     89 HB72        27.2910     8.9050    20.9550 hc         1 GCG       0.125200
     90 HN71        25.2280    10.1910    22.6950 hn         1 GCG       0.437467
     91 HN72        25.7100     8.7360    23.2620 hn         1 GCG       0.437467
     92 HG71        26.2980     7.4900    20.6700 hc         1 GCG       0.040700
     93 HG72        24.8690     8.3740    21.2220 hc         1 GCG       0.040700
     94 O27         29.2480    10.8750    21.9910 o          1 GCG      -0.766300
     95 H13          2.0420     1.9620    -0.0480 hn         1 GCG       0.437467
     96 H73         26.3060    10.1060    23.9210 hn         1 GCG       0.437467
     97 O17         27.4270    11.9260    22.6700 o          1 GCG      -0.766300
@<TRIPOS>BOND
     1     1     2 1
     2     1     3 1
     3     1     4 1
     4     2     5 1
     5     2     6 1
     6     2    47 1
     7     5     7 1
     8     5    48 1
     9     5    49 1
    10     6    50 1
    11     6    51 1
    12     7     8 1
    13     7    52 1
    14     7    53 1
    15     8     9 2
    16     8    10 1
    17    10    11 1
    18    10    54 1
    19    11    12 1
    20    11    14 1
    21    11    55 1
    22    12    13 2
    23    12    16 1
    24    14    15 1
    25    14    56 1
    26    14    57 1
    27    15    58 1
    28    16    17 1
    29    16    59 1
    30    17    18 1
    31    17    60 1
    32    17    61 1
    33    18    19 2
    34    18    20 1
    35    20    21 1
    36    20    62 1
    37    21    22 1
    38    21    63 1
    39    21    64 1
    40    22    23 1
    41    22    65 1
    42    22    66 1
    43    23    24 1
    44    23    67 1
    45    23    68 1
    46    24    26 1
    47    24    69 1
    48    24    70 1
    49    25    26 1
    50    25    27 1
    51    25    71 1
    52    25    72 1
    53    26    73 1
    54    27    28 1
    55    27    74 1
    56    27    75 1
    57    28    29 1
    58    28    76 1
    59    28    77 1
    60    29    30 1
    61    29    78 1
    62    30    32 1
    63    30    33 2
    64    31    32 1
    65    31    34 1
    66    31    79 1
    67    32    80 1
    68    32    81 1
    69    34    36 1
    70    34    37 2
    71    35    36 1
    72    35    40 1
    73    35    82 1
    74    36    38 1
    75    36    83 1
    76    38    39 1
    77    38    84 1
    78    38    85 1
    79    39    86 1
    80    40    45 1
    81    40    46 2
    82    41    42 1
    83    41    97 1
    84    41    94 1
    85    42    43 1
    86    42    44 1
    87    42    87 1
    88    43    45 1
    89    43    88 1
    90    43    89 1
    91    44    90 1
    92    44    91 1
    93    45    92 1
    94    45    93 1
    95    95     6 1
    96    96    44 1
@<TRIPOS>SUBSTRUCTURE
     1 GCG         1 TEMP              0 ****  ****    0 ROOT
