@<TRIPOS>MOLECULE
GCL
   47    47     1     0     0
SMALL
bcc


@<TRIPOS>ATOM
      1 C1           0.0000     0.0000     0.0000 c3         1 GCL      -0.040400
      2 C2           1.5290     0.0000     0.0000 c3         1 GCL      -0.099500
      3 C3           2.0390     0.0000     1.4410 c3         1 GCL       0.156100
      4 C4           3.5690    -0.0010     1.4410 c3         1 GCL       0.153100
      5 C5           4.0800    -0.0000     2.8830 c3         1 GCL      -0.036400
      6 C6           5.6090    -0.0010     2.8830 c3         1 GCL      -0.056700
      7 C7           6.1200     0.0000     4.3250 c3         1 GCL       0.005400
      8 C8           6.1190    -1.2490     2.1620 c3         1 GCL       0.005400
      9 C1'         -0.5110     0.0000    -1.4420 c3         1 GCL      -0.068700
     10 C2'         -2.0410    -0.0000    -1.4410 c3         1 GCL      -0.020900
     11 C3'         -2.5510     0.0010    -2.8840 c3         1 GCL      -0.020900
     12 C4'         -2.0420     1.2480    -3.6050 c3         1 GCL      -0.025400
     13 C5'         -0.5120     1.2500    -3.6050 c3         1 GCL      -0.020900
     14 C6'         -0.0010     1.2490    -2.1630 c3         1 GCL      -0.020900
     15 N2           2.0200    -1.1990    -0.6930 nz         1 GCL       0.055400
     16 O3           1.5640    -1.1660     2.1150 oh         1 GCL      -0.599800
     17 O4           4.0450     1.1660     0.7670 oh         1 GCL      -0.566800
     18 H11         -0.3610     0.8840     0.5110 hc         1 GCL       0.056700
     19 H12         -0.3610    -0.8840     0.5110 hc         1 GCL       0.056700
     20 H2           1.8900     0.8850    -0.5100 hx         1 GCL       0.115700
     21 H3           1.6790     0.8850     1.9520 h1         1 GCL       0.063700
     22 H4           3.9300    -0.8850     0.9300 h1         1 GCL      -0.007300
     23 H51          3.7180    -0.8840     3.3950 hc         1 GCL       0.037700
     24 H52          3.7190     0.8850     3.3940 hc         1 GCL       0.037700
     25 H6           5.9700     0.8830     2.3720 hc         1 GCL       0.040700
     26 H71          5.7150     0.8570     4.8510 hc         1 GCL       0.007200
     27 H72          7.2020     0.0550     4.3240 hc         1 GCL       0.007200
     28 H73          5.8050    -0.9100     4.8200 hc         1 GCL       0.007200
     29 H81          6.1620    -1.0580     1.0960 hc         1 GCL       0.007200
     30 H82          5.4470    -2.0770     2.3540 hc         1 GCL       0.007200
     31 H83          7.1100    -1.4960     2.5240 hc         1 GCL       0.007200
     32 H1'         -0.1520    -0.8830    -1.9570 hc         1 GCL       0.004700
     33 H2'1        -2.4010     0.8850    -0.9310 hc         1 GCL       0.019450
     34 H2'2        -2.4000    -0.8870    -0.9340 hc         1 GCL       0.019450
     35 H3'1        -2.1880    -0.8830    -3.3940 hc         1 GCL       0.022450
     36 H3'2        -3.6340     0.0040    -2.8820 hc         1 GCL       0.022450
     37 H4'1        -2.4020     2.1320    -3.0930 hc         1 GCL       0.028700
     38 H4'2        -2.4020     1.2450    -4.6270 hc         1 GCL       0.028700
     39 H5'1        -0.1530     2.1370    -4.1130 hc         1 GCL       0.022450
     40 H5'2        -0.1520     0.3650    -4.1150 hc         1 GCL       0.022450
     41 H6'1        -0.3640     2.1330    -1.6530 hc         1 GCL       0.019450
     42 H6'2         1.0820     1.2460    -2.1660 hc         1 GCL       0.019450
     43 HN21         1.7640    -1.1530    -1.6600 hn         1 GCL       0.231467
     44 HN22         1.6120    -2.0140    -0.2780 hn         1 GCL       0.231467
     45 HO3          1.0760    -0.9100     2.8810 ho         1 GCL       0.438000
     46 HO4          4.6060     0.9110     0.0540 ho         1 GCL       0.396000
     47 H23          3.0170    -1.2400    -0.6240 hn         1 GCL       0.231467
@<TRIPOS>BOND
     1     1     2 1   
     2     1     9 1   
     3     1    18 1   
     4     1    19 1   
     5     2     3 1   
     6     2    15 1   
     7     2    20 1   
     8     3     4 1   
     9     3    16 1   
    10     3    21 1   
    11     4     5 1   
    12     4    17 1   
    13     4    22 1   
    14     5     6 1   
    15     5    23 1   
    16     5    24 1   
    17     6     7 1   
    18     6     8 1   
    19     6    25 1   
    20     7    26 1   
    21     7    27 1   
    22     7    28 1   
    23     8    29 1   
    24     8    30 1   
    25     8    31 1   
    26     9    10 1   
    27     9    14 1   
    28     9    32 1   
    29    10    11 1   
    30    10    33 1   
    31    10    34 1   
    32    11    12 1   
    33    11    35 1   
    34    11    36 1   
    35    12    13 1   
    36    12    37 1   
    37    12    38 1   
    38    13    14 1   
    39    13    39 1   
    40    13    40 1   
    41    14    41 1   
    42    14    42 1   
    43    15    43 1   
    44    15    44 1   
    45    15    47 1   
    46    16    45 1   
    47    17    46 1   
@<TRIPOS>SUBSTRUCTURE
     1 GCL         1 TEMP              0 ****  ****    0 ROOT
