@<TRIPOS>MOLECULE
GCZ
   43    45     1     0     0
SMALL
bcc


@<TRIPOS>ATOM
      1 O2           0.0000     0.0000     0.0000 o          1 GCZ      -0.679100
      2 O3           2.0410     0.0300    -3.6300 o          1 GCZ      -0.574300
      3 O4           0.0870    -1.0310    -2.4880 o          1 GCZ      -0.574300
      4 S1           1.0620    -0.0030    -2.6020 sy         1 GCZ       1.050900
      5 N5           3.2560    -0.0010     1.1670 n3         1 GCZ      -0.401600
      6 N6           1.8900     0.0000     1.1670 ns         1 GCZ      -0.145300
      7 N7           1.8900    -0.0020    -1.1680 ns         1 GCZ      -0.303300
      8 C8           3.6830    -0.8620     3.3630 c3         1 GCZ      -0.081200
      9 C9           3.6850     0.6850     3.4240 c3         1 GCZ      -0.081200
     10 C10          4.9730    -1.3270     4.0690 c3         1 GCZ      -0.018400
     11 C11          4.9750     1.0910     4.1640 c3         1 GCZ      -0.018400
     12 C12          3.7880    -1.2010     1.8600 c3         1 GCZ       0.138300
     13 C13          3.7890     1.1410     1.9530 c3         1 GCZ       0.138300
     14 C14          5.3380    -0.1530     5.0110 c3         1 GCZ      -0.023400
     15 C15          1.2160     0.0000     0.0000 c          1 GCZ       0.663100
     16 C16          0.1860     1.5240    -2.6990 ca         1 GCZ      -0.165500
     17 C17          0.7820     2.6270    -3.2810 ca         1 GCZ       0.019500
     18 C18         -1.0990     1.6150    -2.2000 ca         1 GCZ       0.019500
     19 C19         -1.1880     3.9180    -2.8510 ca         1 GCZ      -0.035300
     20 C20          0.0960     3.8240    -3.3560 ca         1 GCZ      -0.142500
     21 C21         -1.7890     2.8110    -2.2810 ca         1 GCZ      -0.142500
     22 C22         -1.9360     5.2230    -2.9340 c3         1 GCZ       0.056200
     23 H1           1.3900     0.0150     2.0330 hn         1 GCZ       0.190500
     24 H2           2.8900    -0.0340    -1.1680 hn         1 GCZ       0.242500
     25 H3           2.7950    -1.2850     3.8160 hc         1 GCZ       0.040700
     26 H4           2.7970     1.0730     3.9080 hc         1 GCZ       0.040700
     27 H5           5.7620    -1.4880     3.3450 hc         1 GCZ       0.020450
     28 H6           4.7860    -2.2270     4.6420 hc         1 GCZ       0.020450
     29 H7           5.7640     1.3070     3.4540 hc         1 GCZ       0.020450
     30 H8           4.7890     1.9430     4.8060 hc         1 GCZ       0.020450
     31 H9           3.1820    -2.0690     1.6280 h1         1 GCZ       0.037200
     32 H10          4.8210    -1.3690     1.5830 h1         1 GCZ       0.037200
     33 H11          3.1850     2.0250     1.7900 h1         1 GCZ       0.037200
     34 H12          4.8230     1.3290     1.6900 h1         1 GCZ       0.037200
     35 H13          4.7400    -0.1880     5.9140 hc         1 GCZ       0.018700
     36 H14          6.3960    -0.1630     5.2420 hc         1 GCZ       0.018700
     37 H15          1.7880     2.5530    -3.6760 ha         1 GCZ       0.131000
     38 H16         -1.5700     0.7480    -1.7530 ha         1 GCZ       0.131000
     39 H17          0.5650     4.6900    -3.8070 ha         1 GCZ       0.111500
     40 H18         -2.7950     2.8830    -1.8880 ha         1 GCZ       0.111500
     41 H19         -2.7020     5.2490    -2.1680 hc         1 GCZ       0.010367
     42 H20         -1.2470     6.0440    -2.7840 hc         1 GCZ       0.010367
     43 H21         -2.3980     5.3130    -3.9100 hc         1 GCZ       0.010367
@<TRIPOS>BOND
     1     1    15 2   
     2     2     4 2   
     3     3     4 2   
     4     4     7 1   
     5     4    16 1   
     6     5     6 1   
     7     5    12 1   
     8     5    13 1   
     9     6    15 1   
    10     6    23 1   
    11     7    15 1   
    12     7    24 1   
    13     8     9 1   
    14     8    10 1   
    15     8    12 1   
    16     8    25 1   
    17     9    11 1   
    18     9    13 1   
    19     9    26 1   
    20    10    14 1   
    21    10    27 1   
    22    10    28 1   
    23    11    14 1   
    24    11    29 1   
    25    11    30 1   
    26    12    31 1   
    27    12    32 1   
    28    13    33 1   
    29    13    34 1   
    30    14    35 1   
    31    14    36 1   
    32    16    17 ar  
    33    16    18 ar  
    34    17    20 ar  
    35    17    37 1   
    36    18    21 ar  
    37    18    38 1   
    38    19    20 ar  
    39    19    21 ar  
    40    19    22 1   
    41    20    39 1   
    42    21    40 1   
    43    22    41 1   
    44    22    42 1   
    45    22    43 1   
@<TRIPOS>SUBSTRUCTURE
     1 GCZ         1 TEMP              0 ****  ****    0 ROOT
