@<TRIPOS>MOLECULE
molecule
   43    45     1     0     0
SMALL
bcc


@<TRIPOS>ATOM
      1 O2           0.0000     0.0000     0.0000 o          1 GCZ      -0.635100
      2 O3           2.0410     0.0300    -3.6300 o          1 GCZ      -0.621300
      3 O4           0.0870    -1.0310    -2.4880 o          1 GCZ      -0.621300
      4 S1           1.0620    -0.0030    -2.6020 sy         1 GCZ       1.429900
      5 N5           3.2560    -0.0010     1.1670 n3         1 GCZ      -0.448600
      6 N6           1.8900     0.0000     1.1670 ns         1 GCZ      -0.468300
      7 N7           1.8900    -0.0020    -1.1680 ns         1 GCZ      -0.652300
      8 C8           3.6830    -0.8620     3.3630 c3         1 GCZ      -0.111200
      9 C9           3.6850     0.6850     3.4240 c3         1 GCZ      -0.111200
     10 C10          4.9730    -1.3270     4.0690 c3         1 GCZ      -0.075400
     11 C11          4.9750     1.0910     4.1640 c3         1 GCZ      -0.075400
     12 C12          3.7880    -1.2010     1.8600 c3         1 GCZ       0.127300
     13 C13          3.7890     1.1410     1.9530 c3         1 GCZ       0.127300
     14 C14          5.3380    -0.1530     5.0110 c3         1 GCZ      -0.083400
     15 C15          1.2160     0.0000     0.0000 c          1 GCZ       0.825100
     16 C16          0.1860     1.5240    -2.6990 ca         1 GCZ      -0.319500
     17 C17          0.7820     2.6270    -3.2810 ca         1 GCZ      -0.012500
     18 C18         -1.0990     1.6150    -2.2000 ca         1 GCZ      -0.012500
     19 C19         -1.1880     3.9180    -2.8510 ca         1 GCZ      -0.025300
     20 C20          0.0960     3.8240    -3.3560 ca         1 GCZ      -0.159000
     21 C21         -1.7890     2.8110    -2.2810 ca         1 GCZ      -0.159000
     22 C22         -1.9360     5.2230    -2.9340 c3         1 GCZ      -0.056800
     23 H1           1.3900     0.0150     2.0330 hn         1 GCZ       0.332500
     24 H2           2.8900    -0.0340    -1.1680 hn         1 GCZ       0.358500
     25 H3           2.7950    -1.2850     3.8160 hc         1 GCZ       0.065700
     26 H4           2.7970     1.0730     3.9080 hc         1 GCZ       0.065700
     27 H5           5.7620    -1.4880     3.3450 hc         1 GCZ       0.048450
     28 H6           4.7860    -2.2270     4.6420 hc         1 GCZ       0.048450
     29 H7           5.7640     1.3070     3.4540 hc         1 GCZ       0.048450
     30 H8           4.7890     1.9430     4.8060 hc         1 GCZ       0.048450
     31 H9           3.1820    -2.0690     1.6280 h1         1 GCZ       0.072450
     32 H10          4.8210    -1.3690     1.5830 h1         1 GCZ       0.072450
     33 H11          3.1850     2.0250     1.7900 h1         1 GCZ       0.072450
     34 H12          4.8230     1.3290     1.6900 h1         1 GCZ       0.072450
     35 H13          4.7400    -0.1880     5.9140 hc         1 GCZ       0.049200
     36 H14          6.3960    -0.1630     5.2420 hc         1 GCZ       0.049200
     37 H15          1.7880     2.5530    -3.6760 ha         1 GCZ       0.158500
     38 H16         -1.5700     0.7480    -1.7530 ha         1 GCZ       0.158500
     39 H17          0.5650     4.6900    -3.8070 ha         1 GCZ       0.136000
     40 H18         -2.7950     2.8830    -1.8880 ha         1 GCZ       0.136000
     41 H19         -2.7020     5.2490    -2.1680 hc         1 GCZ       0.048367
     42 H20         -1.2470     6.0440    -2.7840 hc         1 GCZ       0.048367
     43 H21         -2.3980     5.3130    -3.9100 hc         1 GCZ       0.048367
@<TRIPOS>BOND
     1    22    19 1
     2    21    19 ar
     3    21    18 ar
     4    19    20 ar
     5    18    16 ar
     6    20    17 ar
     7    16    17 ar
     8    16     4 1
     9     1    15 2
    10    15     7 1
    11    15     6 1
    12     7     4 1
    13     6     5 1
    14     3     4 2
    15     4     2 2
    16    13     5 1
    17    13     9 1
    18     5    12 1
    19     9    11 1
    20     9     8 1
    21    11    14 1
    22     8    12 1
    23     8    10 1
    24    14    10 1
    25     6    23 1
    26     7    24 1
    27     8    25 1
    28     9    26 1
    29    10    27 1
    30    10    28 1
    31    11    29 1
    32    11    30 1
    33    12    31 1
    34    12    32 1
    35    13    33 1
    36    13    34 1
    37    14    35 1
    38    14    36 1
    39    17    37 1
    40    18    38 1
    41    20    39 1
    42    21    40 1
    43    22    41 1
    44    22    42 1
    45    22    43 1
@<TRIPOS>SUBSTRUCTURE
     1 GCZ         1 TEMP              0 ****  ****    0 ROOT
