@<TRIPOS>MOLECULE
molecule
   21    22     1     0     0
SMALL
bcc


@<TRIPOS>ATOM
      1 O6           0.0000     0.0000     0.0000 o          1 GD1      -0.505500
      2 C6           1.2180     0.0000     0.0000 c          1 GD1       0.718100
      3 C5           1.9410     0.0000     1.2090 cc         1 GD1      -0.163600
      4 C7           1.5730     0.0010     2.6340 cc         1 GD1      -0.125900
      5 C77          0.2120     0.0030     3.1930 ce         1 GD1       0.475800
      6 N77         -0.8140     0.0020     2.4000 n2         1 GD1      -0.731100
      7 N1           1.9130    -0.0060    -1.1610 ns         1 GD1      -0.472400
      8 C2           3.2760    -0.0070    -1.1420 cc         1 GD1       0.455800
      9 N2           3.9560    -0.0140    -2.3340 nz         1 GD1      -0.728600
     10 N3           3.9590    -0.0020    -0.0200 nd         1 GD1      -0.566100
     11 C4           3.3400    -0.0000     1.1690 cd         1 GD1       0.128100
     12 N9           3.7900     0.0000     2.4600 na         1 GD1      -0.127100
     13 C8           2.7430     0.0020     3.3310 cd         1 GD1      -0.060300
     14 H1           0.0670     0.0040     4.2660 h4         1 GD1      -0.015200
     15 H2          -1.7390     0.0030     2.7800 hn         1 GD1       0.417400
     16 H3           1.4250    -0.0100    -2.0350 hn         1 GD1       0.344500
     17 H4           3.7110     0.8000    -2.8630 hn         1 GD1       0.476467
     18 H5           3.7110    -0.8350    -2.8520 hn         1 GD1       0.476467
     19 H6           4.7460    -0.0010     2.7580 hn         1 GD1       0.325700
     20 H7           2.9410     0.0040     4.3960 h4         1 GD1       0.201000
     21 H23          4.9410    -0.0130    -2.1560 hn         1 GD1       0.476467
@<TRIPOS>BOND
     1     6     5 2
     2     5     4 1
     3     4    13 2
     4     4     3 1
     5    13    12 1
     6     1     2 2
     7     3     2 1
     8     3    11 2
     9    12    11 1
    10     2     7 1
    11    11    10 1
    12     7     8 1
    13    10     8 2
    14     8     9 1
    15     5    14 1
    16     6    15 1
    17     7    16 1
    18     9    17 1
    19     9    18 1
    20    12    19 1
    21    13    20 1
    22    21     9 1
@<TRIPOS>SUBSTRUCTURE
     1 GD1         1 TEMP              0 ****  ****    0 ROOT
