@<TRIPOS>MOLECULE
GD1
   21    22     1     0     0
SMALL
bcc


@<TRIPOS>ATOM
      1 O6           0.0000     0.0000     0.0000 o          1 GD1      -0.607500
      2 C6           1.2180     0.0000     0.0000 c          1 GD1       0.658100
      3 C5           1.9410     0.0000     1.2090 cc         1 GD1      -0.223600
      4 C7           1.5730     0.0010     2.6340 cc         1 GD1      -0.119900
      5 C77          0.2120     0.0030     3.1930 ce         1 GD1       0.434800
      6 N77         -0.8140     0.0020     2.4000 n2         1 GD1      -0.632100
      7 N1           1.9130    -0.0060    -1.1610 ns         1 GD1       0.006600
      8 C2           3.2760    -0.0070    -1.1420 cc         1 GD1      -0.029200
      9 N2           3.9560    -0.0140    -2.3340 nz         1 GD1       0.224400
     10 N3           3.9590    -0.0020    -0.0200 nd         1 GD1      -0.340100
     11 C4           3.3400    -0.0000     1.1690 cd         1 GD1      -0.141900
     12 N9           3.7900     0.0000     2.4600 na         1 GD1       0.475900
     13 C8           2.7430     0.0020     3.3310 cd         1 GD1      -0.237300
     14 H1           0.0670     0.0040     4.2660 h4         1 GD1       0.001800
     15 H2          -0.6800     0.0000     1.4080 hn         1 GD1       0.389400
     16 H3           1.4250    -0.0100    -2.0350 hn         1 GD1       0.189500
     17 H4           3.7110    -0.8340    -2.8530 hn         1 GD1       0.216133
     18 H5           4.9410    -0.0140    -2.1560 hn         1 GD1       0.216133
     19 H6           4.7460    -0.0010     2.7580 hn         1 GD1       0.131700
     20 H7           2.9400     0.0040     4.3960 h4         1 GD1       0.170000
     21 H23          3.7110     0.8000    -2.8620 hn         1 GD1       0.216133
@<TRIPOS>BOND
     1     1     2 2   
     2     2     3 1   
     3     2     7 1   
     4     3     4 1   
     5     3    11 2   
     6     4     5 1   
     7     4    13 2   
     8     5     6 2   
     9     5    14 1   
    10     6    15 1   
    11     7     8 1   
    12     7    16 1   
    13     8     9 1   
    14     8    10 2   
    15     9    17 1   
    16     9    18 1   
    17     9    21 1   
    18    10    11 1   
    19    11    12 1   
    20    12    13 1   
    21    12    19 1   
    22    13    20 1   
@<TRIPOS>SUBSTRUCTURE
     1 GD1         1 TEMP              0 ****  ****    0 ROOT
