@<TRIPOS>MOLECULE
GD5
   50    54     1     0     0
SMALL
bcc


@<TRIPOS>ATOM
      1 C1           0.0000     0.0000     0.0000 c3         1 GD5       0.103200
      2 C2           1.5070     0.0000     0.0000 cc         1 GD5      -0.274600
      3 C3           2.3090     0.0000     1.0950 cd         1 GD5      -0.238700
      4 C4           3.6400    -0.0020     0.6530 cd         1 GD5       0.377200
      5 N1           3.6400    -0.0020    -0.6550 nc         1 GD5      -0.635800
      6 N2           2.3110    -0.0070    -1.0960 na         1 GD5       0.499400
      7 C5           1.8640    -0.0140    -2.4920 c3         1 GD5      -0.038000
      8 C6           2.3970     1.2310    -3.2050 c3         1 GD5      -0.039900
      9 C7           1.9790     1.1880    -4.6770 c3         1 GD5       0.151800
     10 N3           2.5190    -0.0260    -5.3040 n7         1 GD5      -0.575200
     11 C8           1.9850    -1.2350    -4.6660 c3         1 GD5       0.151800
     12 C9           2.4020    -1.2640    -3.1940 c3         1 GD5      -0.039900
     13 N4           1.8820     0.0010     2.4370 nu         1 GD5      -0.217300
     14 C10          2.8130     0.0000     3.4620 ca         1 GD5       0.706900
     15 N5           4.1040    -0.0010     3.1590 nb         1 GD5      -0.692000
     16 C11          5.0280    -0.0010     4.1080 ca         1 GD5       0.506200
     17 C12          4.6380    -0.0000     5.4340 ca         1 GD5      -0.382200
     18 C13          3.2650     0.0010     5.7250 ca         1 GD5       0.605100
     19 N6           2.3920     0.0060     4.7150 nb         1 GD5      -0.680000
     20 C14          2.7960     0.0020     7.1210 cc         1 GD5      -0.531900
     21 C15          1.7740     0.7640     7.6460 cd         1 GD5       0.116600
     22 N7           1.6610     0.4750     8.9380 nd         1 GD5      -0.255600
     23 C16          2.5640    -0.4410     9.2720 cc         1 GD5      -0.242300
     24 N8           3.2880    -0.7630     8.1560 na         1 GD5       0.665700
     25 C17          4.2840    -1.6920     8.2210 cc         1 GD5      -0.309300
     26 C18          4.5720    -2.3110     9.3860 cd         1 GD5      -0.075000
     27 C19          3.8450    -2.0050    10.5470 cd         1 GD5      -0.132000
     28 C20          2.8530    -1.0750    10.4950 cc         1 GD5      -0.023000
     29 Cl           5.8160    -0.0020     6.7080 cl         1 GD5       0.004600
     30 H11C        -0.3610     0.0250     1.0210 hc         1 GD5       0.010033
     31 H12C        -0.3610    -0.8970    -0.4880 hc         1 GD5       0.010033
     32 H13C        -0.3610     0.8720    -0.5330 hc         1 GD5       0.010033
     33 H4           4.5190    -0.0010     1.2870 h4         1 GD5       0.058100
     34 HA           0.9040     0.0030     2.6500 hn         1 GD5       0.288800
     35 H5           0.7820    -0.0160    -2.5310 h1         1 GD5       0.039700
     36 H61C         1.9840     2.1180    -2.7390 hc         1 GD5       0.036950
     37 H62C         3.4780     1.2510    -3.1370 hc         1 GD5       0.036950
     38 H91C         1.9910    -2.1480    -2.7200 hc         1 GD5       0.036950
     39 H92C         3.4830    -1.2800    -3.1250 hc         1 GD5       0.036950
     40 H71C         0.8980     1.1770    -4.7440 h1         1 GD5       0.006200
     41 H72C         2.3690     2.0600    -5.1870 h1         1 GD5       0.006200
     42 H3           2.2850    -0.0320    -6.2770 hn         1 GD5       0.252800
     43 H81C         2.3790    -2.1110    -5.1680 h1         1 GD5       0.006200
     44 H82C         0.9040    -1.2300    -4.7340 h1         1 GD5       0.006200
     45 H11          6.0800    -0.0020     3.8480 h4         1 GD5      -0.008900
     46 H15          1.1690     1.4770     7.1000 h4         1 GD5       0.146000
     47 H20          2.2860    -0.8310    11.3850 ha         1 GD5       0.125000
     48 H17          4.8500    -1.9340     7.3300 h4         1 GD5       0.159000
     49 H18          5.3630    -3.0510     9.4230 ha         1 GD5       0.117000
     50 H19          4.0770    -2.5030    11.4810 ha         1 GD5       0.117000
@<TRIPOS>BOND
     1     1     2 1   
     2     1    30 1   
     3     1    31 1   
     4     1    32 1   
     5     2     3 2   
     6     2     6 1   
     7     3     4 1   
     8     3    13 1   
     9     4     5 2   
    10     4    33 1   
    11     5     6 1   
    12     6     7 1   
    13     7     8 1   
    14     7    12 1   
    15     7    35 1   
    16     8     9 1   
    17     8    36 1   
    18     8    37 1   
    19     9    10 1   
    20     9    40 1   
    21     9    41 1   
    22    10    11 1   
    23    10    42 1   
    24    11    12 1   
    25    11    43 1   
    26    11    44 1   
    27    12    38 1   
    28    12    39 1   
    29    13    14 1   
    30    13    34 1   
    31    14    15 ar  
    32    14    19 ar  
    33    15    16 ar  
    34    16    17 ar  
    35    16    45 1   
    36    17    18 ar  
    37    17    29 1   
    38    18    19 ar  
    39    18    20 1   
    40    20    21 2   
    41    20    24 1   
    42    21    22 1   
    43    21    46 1   
    44    22    23 2   
    45    23    24 1   
    46    23    28 1   
    47    24    25 1   
    48    25    26 2   
    49    25    48 1   
    50    26    27 1   
    51    26    49 1   
    52    27    28 2   
    53    27    50 1   
    54    28    47 1   
@<TRIPOS>SUBSTRUCTURE
     1 GD5         1 TEMP              0 ****  ****    0 ROOT
