@<TRIPOS>MOLECULE
molecule
   27    26     1     0     0
SMALL
bcc


@<TRIPOS>ATOM
      1 C1           0.0000     0.0000     0.0000 c3         1 GD7      -0.084100
      2 C2           2.0400     0.0000     1.4420 c3         1 GD7      -0.084100
      3 C3           2.0410     1.2480    -0.7230 c3         1 GD7      -0.084100
      4 C4           1.5280    -2.4990     0.0010 c3         1 GD7      -0.099100
      5 C5           2.0390    -1.2500    -0.7220 c3         1 GD7       0.155100
      6 C6           1.5300     0.0000     0.0000 c3         1 GD7      -0.084000
      7 OH           1.5620    -1.2500    -2.0680 os         1 GD7      -0.514200
      8 P1           2.8600    -1.2520    -3.0210 p5         1 GD7       1.131300
      9 O11          3.6690    -2.4600    -2.7510 o          1 GD7      -0.772300
     10 H11         -0.3610     0.9280     0.4260 hc         1 GD7       0.039367
     11 H12         -0.3610    -0.8330     0.5910 hc         1 GD7       0.039367
     12 H13         -0.3610    -0.0950    -1.0170 hc         1 GD7       0.039367
     13 H21          1.4410    -0.6780     2.0370 hc         1 GD7       0.039367
     14 H22          1.9670     1.0000     1.8510 hc         1 GD7       0.039367
     15 H23          3.0750    -0.3220     1.4590 hc         1 GD7       0.039367
     16 H31          3.1200     1.2050    -0.7990 hc         1 GD7       0.039367
     17 H32          1.6100     1.2920    -1.7160 hc         1 GD7       0.039367
     18 H33          1.7530     2.1310    -0.1650 hc         1 GD7       0.039367
     19 H42          0.8550    -3.0430    -0.6500 hc         1 GD7       0.052367
     20 H43          1.0010    -2.2060     0.9010 hc         1 GD7       0.052367
     21 H5           3.1220    -1.2510    -0.7220 h1         1 GD7       0.049700
     22 H71          1.7510    -0.3600    -4.9680 hc         1 GD7       0.080033
     23 H72          3.2050    -1.2660    -5.4070 hc         1 GD7       0.080033
     24 H73          1.7270    -2.1290    -4.9610 hc         1 GD7       0.080033
     25 HP1          3.6300    -0.1050    -2.7650 hp         1 GD7      -0.089400
     26 H41          2.3660    -3.1330     0.2640 hc         1 GD7       0.052367
     27 C7           2.3320    -1.2520    -4.7660 c3         1 GD7      -0.274300
@<TRIPOS>BOND
     1     1     6 1
     2     1    10 1
     3     1    11 1
     4     1    12 1
     5     2     6 1
     6     2    13 1
     7     2    14 1
     8     2    15 1
     9     3     6 1
    10     3    16 1
    11     3    17 1
    12     3    18 1
    13     4     5 1
    14     4    26 1
    15     4    19 1
    16     4    20 1
    17     5     6 1
    18     5     7 1
    19     5    21 1
    20    27     8 1
    21    27    22 1
    22    27    23 1
    23    27    24 1
    24     7     8 1
    25     8     9 2
    26     8    25 1
@<TRIPOS>SUBSTRUCTURE
     1 GD7         1 TEMP              0 ****  ****    0 ROOT
