@<TRIPOS>MOLECULE
GD7
   27    25     1     0     0
SMALL
bcc


@<TRIPOS>ATOM
      1 C1          0.1660    0.4510   -0.4280 c3        1 GD7     -0.195667
      2 C2          2.0080    0.1170    1.2110 c3        1 GD7     -0.195667
      3 C3          1.9200    2.1990   -0.1580 c3        1 GD7     -0.195667
      4 C4          1.7910   -3.6580    0.5010 c3        1 GD7     -0.279000
      5 C5          2.5640    0.0690   -1.1470 c1        1 GD7      0.019000
      6 C6          1.6380    0.7010   -0.1500 c3        1 GD7     -0.134000
      7 OH          2.0090   -0.5570   -2.1610 os        1 GD7     -0.637000
      8 P1          3.1750   -1.3440   -3.0560 p5        1 GD7      2.778000
      9 O11         3.4790   -2.6160   -2.4280 o         1 GD7     -1.097000
     10 H11        -0.1100    0.8480   -1.4340 hc        1 GD7      0.080556
     11 H12        -0.0450   -0.6460   -0.4120 hc        1 GD7      0.080556
     12 H13        -0.4670    0.9510    0.3430 hc        1 GD7      0.080556
     13 H21         1.3710    0.5800    2.0010 hc        1 GD7      0.080556
     14 H22         3.0800    0.3210    1.4420 hc        1 GD7      0.080556
     15 H23         1.8430   -0.9890    1.2150 hc        1 GD7      0.080556
     16 H31         1.3330    2.6930    0.6530 hc        1 GD7      0.080556
     17 H32         1.6220    2.6450   -1.1360 hc        1 GD7      0.080556
     18 H33         3.0060    2.3920    0.0130 hc        1 GD7      0.080556
     19 H42         2.3270   -3.3400    1.4220 hc        1 GD7      0.069750
     20 H43         1.4210   -4.6980    0.6290 hc        1 GD7      0.069750
     21 H5          0.9280   -2.9780    0.3240 hc        1 GD7      0.069750
     22 H71         2.1030   -2.4060   -4.7880 hc        1 GD7      0.153333
     23 H72         1.5960   -0.7010   -4.6250 hc        1 GD7      0.153333
     24 H73         3.1710   -1.0980   -5.3670 hc        1 GD7      0.153333
     25 HP1         4.1170   -0.4920   -3.1900 hp        1 GD7     -0.533000
     26 H41         2.4860   -3.6130   -0.3690 hc        1 GD7      0.069750
     27 C7          2.4810   -1.3810   -4.5350 c3        1 GD7     -0.994000
@<TRIPOS>BOND
     1    1    6 1   
     2    1   10 1   
     3    1   11 1   
     4    1   12 1   
     5    2    6 1   
     6    2   13 1   
     7    2   14 1   
     8    2   15 1   
     9    3    6 1   
    10    3   16 1   
    11    3   17 1   
    12    3   18 1   
    13    4   19 1   
    14    4   20 1   
    15    4   21 1   
    16    4   26 1   
    17    5    6 1   
    18    5    7 1   
    19    7    8 1   
    20    8    9 1   
    21    8   25 1   
    22    8   27 1   
    23   22   27 1   
    24   23   27 1   
    25   24   27 1   
@<TRIPOS>SUBSTRUCTURE
     1 GD7         1 TEMP              0 ****  ****    0 ROOT
