@<TRIPOS>MOLECULE
GD8
   27    26     1     0     0
SMALL
bcc


@<TRIPOS>ATOM
      1 C7          0.1950    0.1580   -0.1430 c3        1 GD8     -0.087433
      2 C4          1.6840   -0.1300   -0.0000 c3        1 GD8     -0.059000
      3 C6          1.9970   -1.5190   -0.5310 c3        1 GD8     -0.087433
      4 C5          2.4480    0.8980   -0.8250 c3        1 GD8     -0.087433
      5 C2          2.0800   -0.0150    1.4920 c3        1 GD8      0.189100
      6 C3          1.4550   -1.1210    2.3330 c3        1 GD8     -0.113100
      7 O2          3.4900   -0.1060    1.6110 os        1 GD8     -0.612200
      8 P           4.2900    1.0160    2.4550 p5        1 GD8      1.459300
      9 C1          5.5740    1.3980    1.5140 c3        1 GD8     -0.451300
     10 O1          3.4120    2.1050    2.8680 o         1 GD8     -0.851300
     11 H7         -0.0760    0.2140   -1.2250 hc        1 GD8      0.036700
     12 H7A        -0.0620    1.1310    0.3390 hc        1 GD8      0.036700
     13 H7B        -0.4180   -0.6490    0.3240 hc        1 GD8      0.036700
     14 H6          1.8610   -1.5480   -1.6380 hc        1 GD8      0.036700
     15 H6A         1.3180   -2.2780   -0.0710 hc        1 GD8      0.036700
     16 H6B         3.0530   -1.7890   -0.2870 hc        1 GD8      0.036700
     17 H5          2.0640    0.9080   -1.8740 hc        1 GD8      0.036700
     18 H5A         3.5340    0.6440   -0.8580 hc        1 GD8      0.036700
     19 H5B         2.3200    1.9190   -0.3930 hc        1 GD8      0.036700
     20 H2          1.7510    0.9970    1.8760 h1        1 GD8      0.076700
     21 H3          1.5830   -0.9070    3.4210 hc        1 GD8      0.044367
     22 H3A         1.9420   -2.1000    2.1060 hc        1 GD8      0.044367
     23 H3B         0.3630   -1.1960    2.1200 hc        1 GD8      0.044367
     24 H1          5.5200    2.4540    1.1480 hc        1 GD8      0.110033
     25 H1A         5.6410    0.7540    0.6010 hc        1 GD8      0.110033
     26 H1B         6.5590    1.3020    2.0310 hc        1 GD8      0.110033
     27 H1P         4.8020    0.3200    3.4080 hp        1 GD8     -0.170400
@<TRIPOS>BOND
     1    1    2 1   
     2    1   11 1   
     3    1   12 1   
     4    1   13 1   
     5    2    3 1   
     6    2    4 1   
     7    2    5 1   
     8    3   14 1   
     9    3   15 1   
    10    3   16 1   
    11    4   17 1   
    12    4   18 1   
    13    4   19 1   
    14    5    6 1   
    15    5    7 1   
    16    5   20 1   
    17    6   21 1   
    18    6   22 1   
    19    6   23 1   
    20    7    8 1   
    21    8    9 1   
    22    8   10 2   
    23    8   27 1   
    24    9   24 1   
    25    9   25 1   
    26    9   26 1   
@<TRIPOS>SUBSTRUCTURE
     1 GD8         1 TEMP              0 ****  ****    0 ROOT
