@<TRIPOS>MOLECULE
molecule
   27    26     1     0     0
SMALL
bcc


@<TRIPOS>ATOM
      1 C7           0.0000     0.0000     0.0000 c3         1 GD8      -0.081767
      2 C4           1.5310     0.0000     0.0000 c3         1 GD8      -0.079000
      3 C6           2.0400    -1.2500    -0.7200 c3         1 GD8      -0.081767
      4 C5           2.0400     1.2490    -0.7220 c3         1 GD8      -0.081767
      5 C2           2.0390     0.0000     1.4430 c3         1 GD8       0.221100
      6 C3           1.5290    -1.2490     2.1650 c3         1 GD8      -0.114100
      7 O2           3.4690    -0.0000     1.4440 os         1 GD8      -0.584200
      8 P            4.3460     1.1700     2.1180 p5         1 GD8       1.186300
      9 C1           6.1170     0.8000     1.9070 c3         1 GD8      -0.279300
     10 O1           4.0290     2.4610     1.4690 o          1 GD8      -0.782300
     11 H7          -0.3610    -0.9940     0.2330 hc         1 GD8       0.039589
     12 H7A         -0.3610     0.2960    -0.9780 hc         1 GD8       0.039589
     13 H7B         -0.3610     0.6990     0.7450 hc         1 GD8       0.039589
     14 H6           3.0780    -1.4180    -0.4610 hc         1 GD8       0.039589
     15 H6A          1.9530    -1.1100    -1.7910 hc         1 GD8       0.039589
     16 H6B          1.4490    -2.1060    -0.4190 hc         1 GD8       0.039589
     17 H5           3.1130     1.1750    -0.8580 hc         1 GD8       0.039589
     18 H5A          1.8110     2.1270    -0.1300 hc         1 GD8       0.039589
     19 H5B          1.5580     1.3290    -1.6880 hc         1 GD8       0.039589
     20 H2           1.6780     0.8850     1.9540 h1         1 GD8       0.038700
     21 H3           1.7570    -1.1730     3.2210 hc         1 GD8       0.046700
     22 H3A          2.0130    -2.1260     1.7530 hc         1 GD8       0.046700
     23 H3B          0.4580    -1.3310     2.0310 hc         1 GD8       0.046700
     24 H1           6.3410     0.6950     0.8520 hc         1 GD8       0.081033
     25 H1A          6.3580    -0.1230     2.4210 hc         1 GD8       0.081033
     26 H1B          6.7070     1.6090     2.3220 hc         1 GD8       0.081033
     27 H1P          4.0450     1.2490     3.4890 hp         1 GD8      -0.102400
@<TRIPOS>BOND
     1     1     2 1
     2     2     3 1
     3     2     4 1
     4     2     5 1
     5     5     6 1
     6     5     7 1
     7     7     8 1
     8     8     9 1
     9     8    10 2
    10     1    11 1
    11     1    12 1
    12     1    13 1
    13     3    14 1
    14     3    15 1
    15     3    16 1
    16     4    17 1
    17     4    18 1
    18     4    19 1
    19     5    20 1
    20     6    21 1
    21     6    22 1
    22     6    23 1
    23     9    24 1
    24     9    25 1
    25     9    26 1
    26     8    27 1
@<TRIPOS>SUBSTRUCTURE
     1 GD8         1 TEMP              0 ****  ****    0 ROOT
