@<TRIPOS>MOLECULE
molecule
   62    67     1     0     0
SMALL
bcc


@<TRIPOS>ATOM
      1 O3           0.0000     0.0000     0.0000 os         1 GD9      -0.421600
      2 C4           1.8560    -1.2250     3.4530 ca         1 GD9       0.696200
      3 C5           0.6150    -4.2070     5.6950 cc         1 GD9      -0.019600
      4 C6           1.4500    -3.4270     6.3630 cd         1 GD9      -0.230800
      5 N1           2.8110    -1.3190     5.9900 nb         1 GD9      -0.733000
      6 C7          -0.0420    -5.4360     6.2680 c3         1 GD9       0.232000
      7 C8           4.0990     0.6840     5.6150 cp         1 GD9      -0.074500
      8 N2           2.7030    -0.3110     3.9040 nb         1 GD9      -0.780000
      9 C9          -1.8800    -6.1820     7.6580 c3         1 GD9       0.149300
     10 C10         -3.1120    -5.7010     8.4300 c3         1 GD9       0.238300
     11 C11         -3.5260    -4.0410     6.5730 c3         1 GD9       0.238300
     12 C12         -2.2760    -4.5870     5.8740 c3         1 GD9       0.149300
     13 N3           1.3790    -1.1610     2.1540 nh         1 GD9      -0.695300
     14 C13         -6.4610    -4.4200     8.6040 c3         1 GD9      -0.247300
     15 C14          1.9360     0.0000     1.4450 c3         1 GD9       0.130300
     16 C15          1.4310     0.0000     0.0000 c3         1 GD9       0.135400
     17 N4          -1.3220    -5.0630     6.8860 n3         1 GD9      -0.726600
     18 O2          -5.6380    -6.8630     7.9170 o          1 GD9      -0.629800
     19 O1          -6.0430    -5.2370     6.0980 o          1 GD9      -0.629800
     20 N5          -4.0450    -5.0770     7.4790 n3         1 GD9      -0.823500
     21 S1           0.3680    -3.6230     4.0600 ss         1 GD9      -0.075500
     22 C2           1.9620    -2.3000     5.6120 ca         1 GD9       0.502100
     23 C1           1.4550    -2.2660     4.3110 ca         1 GD9      -0.289700
     24 C3           3.1650    -0.3660     5.1510 cp         1 GD9       0.771500
     25 C18          4.4910     1.7010     4.7570 ca         1 GD9      -0.124000
     26 C19          5.3650     2.6860     5.1880 ca         1 GD9      -0.101000
     27 C20          5.8600     2.6750     6.4730 ca         1 GD9      -0.140000
     28 C21          5.4850     1.6660     7.3580 ca         1 GD9      -0.033200
     29 N6           5.7970     1.3880     8.6640 na         1 GD9      -0.054100
     30 C22          4.5940     0.6630     6.9360 ca         1 GD9      -0.213900
     31 C23          4.3970    -0.2030     8.0360 cc         1 GD9       0.396800
     32 N7           5.1120     0.2250     9.0370 nd         1 GD9      -0.511100
     33 C16         -0.5760    -1.1170     0.6820 c3         1 GD9       0.135400
     34 C17         -0.0910    -1.1280     2.1340 c3         1 GD9       0.130300
     35 H6           1.7290    -3.6170     7.3920 ha         1 GD9       0.169000
     36 H7          -0.2190    -6.1530     5.4760 h1         1 GD9       0.051700
     37 H7A          0.6050    -5.8760     7.0170 h1         1 GD9       0.051700
     38 H9          -1.1350    -6.5430     8.3570 h1         1 GD9       0.047450
     39 H9A         -2.1660    -6.9790     6.9830 h1         1 GD9       0.047450
     40 H10         -2.8130    -4.9740     9.1750 h1         1 GD9       0.062450
     41 H10A        -3.5930    -6.5450     8.9090 h1         1 GD9       0.062450
     42 H11         -3.2660    -3.1570     7.1430 h1         1 GD9       0.062450
     43 H11A        -4.2770    -3.7960     5.8330 h1         1 GD9       0.062450
     44 H12         -2.5550    -5.4090     5.2270 h1         1 GD9       0.047450
     45 H12A        -1.8170    -3.7990     5.2900 h1         1 GD9       0.047450
     46 H13         -6.0340    -4.5560     9.5900 h1         1 GD9       0.097033
     47 H13A        -7.5170    -4.6600     8.6320 h1         1 GD9       0.097033
     48 H13B        -6.3330    -3.3890     8.2940 h1         1 GD9       0.097033
     49 H14          1.6180     0.9110     1.9380 h1         1 GD9       0.062700
     50 H14A         3.0170    -0.0610     1.4490 h1         1 GD9       0.062700
     51 H15          1.7910     0.8860    -0.5080 h1         1 GD9       0.058700
     52 H15A         1.7910    -0.8860    -0.5080 h1         1 GD9       0.058700
     53 H18          4.1110     1.7250     3.7420 ha         1 GD9       0.152000
     54 H19          5.6620     3.4740     4.5070 ha         1 GD9       0.136000
     55 H20          6.5430     3.4510     6.7960 ha         1 GD9       0.130000
     56 HN6          6.4150     1.9180     9.2460 hn         1 GD9       0.331700
     57 H23          3.7660    -1.0830     8.0420 h4         1 GD9       0.085800
     58 H16         -1.6560    -1.0330     0.6630 h1         1 GD9       0.058700
     59 H16A        -0.2710    -2.0350     0.1930 h1         1 GD9       0.058700
     60 H17         -0.4380    -0.2330     2.6360 h1         1 GD9       0.062700
     61 H17A        -0.4780    -2.0050     2.6370 h1         1 GD9       0.062700
     62 S2          -5.6370    -5.5290     7.4280 s6         1 GD9       1.326900
@<TRIPOS>BOND
     1     1    16 1
     2     1    33 1
     3     2     8 ar
     4     2    13 1
     5     2    23 ar
     6     3     4 2
     7     3     6 1
     8     3    21 1
     9     4    22 1
    10     5    22 ar
    11     5    24 ar
    12     6    17 1
    13     7    24 1
    14     7    25 ar
    15     7    30 ar
    16     8    24 ar
    17     9    10 1
    18     9    17 1
    19    10    20 1
    20    11    12 1
    21    11    20 1
    22    12    17 1
    23    13    15 1
    24    13    34 1
    25    14    62 1
    26    15    16 1
    27    18    62 2
    28    62    19 2
    29    62    20 1
    30    21    23 1
    31    22    23 ar
    32    25    26 ar
    33    26    27 ar
    34    27    28 ar
    35    28    29 1
    36    28    30 ar
    37    29    32 1
    38    30    31 1
    39    31    32 2
    40    33    34 1
    41     4    35 1
    42     6    36 1
    43     6    37 1
    44     9    38 1
    45     9    39 1
    46    10    40 1
    47    10    41 1
    48    11    42 1
    49    11    43 1
    50    12    44 1
    51    12    45 1
    52    14    46 1
    53    14    47 1
    54    14    48 1
    55    15    49 1
    56    15    50 1
    57    16    51 1
    58    16    52 1
    59    25    53 1
    60    26    54 1
    61    27    55 1
    62    29    56 1
    63    31    57 1
    64    33    58 1
    65    33    59 1
    66    34    60 1
    67    34    61 1
@<TRIPOS>SUBSTRUCTURE
     1 GD9         1 TEMP              0 ****  ****    0 ROOT
