@<TRIPOS>MOLECULE
GDA
   26    26     1     0     0
SMALL
bcc


@<TRIPOS>ATOM
      1 C1           0.0000     0.0000     0.0000 c3         1 GDA       0.369900
      2 C2           1.5290     0.0000     0.0000 c3         1 GDA       0.150100
      3 C3           2.0960     0.0000     1.4230 c3         1 GDA       0.177100
      4 C4           1.4400     1.1120     2.2570 c3         1 GDA      -0.133500
      5 C5          -0.0950     1.0530     2.1470 c3         1 GDA       0.166100
      6 C6          -0.7840     2.2320     2.8330 c3         1 GDA       0.229400
      7 N4           1.8780     0.9940     3.6500 nz         1 GDA       0.088400
      8 O2           1.9930    -1.1340    -0.7240 oh         1 GDA      -0.555800
      9 O3           3.5020     0.2470     1.3600 oh         1 GDA      -0.591800
     10 O5          -0.5000     1.0940     0.7700 os         1 GDA      -0.355600
     11 O6          -2.1830     2.0930     2.6670 oh         1 GDA      -0.552800
     12 O1          -0.5510    -1.2490     0.4140 oh         1 GDA      -0.590800
     13 HA_1        -0.3150     0.1660    -1.0230 h2         1 GDA       0.038700
     14 HA           1.8700     0.8970    -0.5030 h1         1 GDA       0.034700
     15 HB           1.9100    -0.9610     1.8880 h1         1 GDA       0.038700
     16 HC           1.7720     2.0680     1.8700 hx         1 GDA       0.106700
     17 H5          -0.4450     0.1280     2.5890 h1         1 GDA       0.048700
     18 H6C1        -0.5400     2.2330     3.8880 h1         1 GDA      -0.014800
     19 H6C2        -0.4540     3.1600     2.3810 h1         1 GDA      -0.014800
     20 H4N1         1.6660     1.8400     4.1400 hn         1 GDA       0.226133
     21 H4N2         1.4040     0.2280     4.0850 hn         1 GDA       0.226133
     22 H2           2.3720    -0.8520    -1.5400 ho         1 GDA       0.414000
     23 H3           3.9700    -0.5600     1.4970 ho         1 GDA       0.430000
     24 H6          -2.6220     2.8200     3.0750 ho         1 GDA       0.414000
     25 H1          -1.2360    -1.5030    -0.1810 ho         1 GDA       0.428000
     26 H43          2.8650     0.8270     3.6760 hn         1 GDA       0.226133
@<TRIPOS>BOND
     1     1     2 1   
     2     1    10 1   
     3     1    12 1   
     4     1    13 1   
     5     2     3 1   
     6     2     8 1   
     7     2    14 1   
     8     3     4 1   
     9     3     9 1   
    10     3    15 1   
    11     4     5 1   
    12     4     7 1   
    13     4    16 1   
    14     5     6 1   
    15     5    10 1   
    16     5    17 1   
    17     6    11 1   
    18     6    18 1   
    19     6    19 1   
    20     7    20 1   
    21     7    21 1   
    22     7    26 1   
    23     8    22 1   
    24     9    23 1   
    25    11    24 1   
    26    12    25 1   
@<TRIPOS>SUBSTRUCTURE
     1 GDA         1 TEMP              0 ****  ****    0 ROOT
