@<TRIPOS>MOLECULE
GDB
   52    52     1     0     0
SMALL
bcc


@<TRIPOS>ATOM
      1 N1          0.4400    2.0250   -0.0230 n4        1 GDB     -0.833600
      2 CA1         1.7880    1.5070   -0.4220 c3        1 GDB     -0.043500
      3 C1          2.7030    2.7170   -0.8640 c         1 GDB      0.942600
      4 O11         3.9080    2.4360   -1.0960 o         1 GDB     -0.796800
      5 O12         2.1630    3.8420   -0.9630 o         1 GDB     -0.796800
      6 CB1         1.6970    0.4690   -1.5410 c3        1 GDB     -0.086400
      7 CG1         3.0660   -0.0800   -1.9080 c3        1 GDB     -0.128400
      8 CD1         3.7080    0.7440   -3.0000 c         1 GDB      0.578100
      9 OE1         3.1330    1.2500   -3.9520 o         1 GDB     -0.429100
     10 N2          5.2040    0.9020   -2.8990 n4        1 GDB     -0.664800
     11 CA2         5.7980    1.9490   -3.8070 c3        1 GDB      0.062500
     12 C2          6.8810    1.2940   -4.7120 c         1 GDB      0.649100
     13 O2          7.2100    0.1060   -4.5060 o         1 GDB     -0.610100
     14 CB2         6.3840    3.1180   -3.0160 c3        1 GDB     -0.167300
     15 SG2         6.5790    4.5370   -4.0270 ss        1 GDB      0.038000
     16 N3          7.4520    2.0850   -5.6720 n         1 GDB     -0.502900
     17 CA3         8.2350    1.5090   -6.7320 c3        1 GDB     -0.016000
     18 C3          7.4130    1.0610   -7.9300 c         1 GDB      0.600100
     19 O31         8.0650    0.5940   -9.0270 oh        1 GDB     -0.549100
     20 O32         6.1860    1.0640   -8.0220 o         1 GDB     -0.486000
     21 C1'         5.2170    5.5210   -3.8400 ca        1 GDB      0.033900
     22 C2'         5.1380    6.6770   -4.6600 ca        1 GDB     -0.194200
     23 N2'         6.2070    6.9470   -5.6540 no        1 GDB      0.314200
     24 O21         7.1190    6.1560   -5.7280 o         1 GDB     -0.184000
     25 O22         6.1400    7.9150   -6.3530 o         1 GDB     -0.184000
     26 C3'         4.0680    7.5780   -4.5640 ca        1 GDB      0.011000
     27 C4'         3.0480    7.3150   -3.6400 ca        1 GDB     -0.199200
     28 N4'         1.8920    8.2470   -3.5330 no        1 GDB      0.320200
     29 O41         1.8890    9.2420   -4.2010 o         1 GDB     -0.188500
     30 O42         0.9990    7.9630   -2.7820 o         1 GDB     -0.188500
     31 C5'         3.1030    6.1780   -2.8170 ca        1 GDB      0.003000
     32 C6'         4.1790    5.3040   -2.9280 ca        1 GDB     -0.167000
     33 HN11        0.3340    1.9920    0.9910 hn        1 GDB      0.463133
     34 HN12       -0.3110    1.4950   -0.4640 hn        1 GDB      0.463133
     35 HA1         2.2630    1.0430    0.4890 hx        1 GDB      0.108700
     36 HB11        1.0620   -0.3960   -1.2050 hc        1 GDB      0.082700
     37 HB12        1.2110    0.9170   -2.4510 hc        1 GDB      0.082700
     38 HG11        2.9510   -1.1240   -2.3160 hc        1 GDB      0.106700
     39 HG12        3.7160   -0.1240   -0.9930 hc        1 GDB      0.106700
     40 HN2         5.4070    1.1690   -1.9190 hn        1 GDB      0.486800
     41 HA2         4.9670    2.3280   -4.4830 hx        1 GDB      0.147700
     42 HB21        5.7790    3.3250   -2.0910 h1        1 GDB      0.128700
     43 HB22        7.4230    2.8630   -2.6740 h1        1 GDB      0.128700
     44 HN3         9.0240    0.6200   -8.8890 ho        1 GDB      0.435000
     45 HA31        8.9790    2.2860   -7.0740 h1        1 GDB      0.108200
     46 HA32        8.7960    0.6100   -6.3380 h1        1 GDB      0.108200
     47 H3'         4.0290    8.4800   -5.2100 ha        1 GDB      0.213000
     48 H5'         2.3040    5.9640   -2.0790 ha        1 GDB      0.205000
     49 H6'         4.1760    4.4260   -2.2520 ha        1 GDB      0.187000
     50 H13         0.3870    3.0230   -0.3300 hn        1 GDB      0.463133
     51 H22         5.6500   -0.0100   -3.1010 hn        1 GDB      0.486800
     52 H32         7.0690    2.9970   -5.8390 hn        1 GDB      0.351500
@<TRIPOS>BOND
     1    1    2 1
     2    1   33 1
     3    1   34 1
     4    1   50 1
     5    2    3 1
     6    2    6 1
     7    2   35 1
     8    3    4 1
     9    3    5 1
    10    6    7 1
    11    6   36 1
    12    6   37 1
    13    7    8 1
    14    7   38 1
    15    7   39 1
    16    8    9 2
    17    8   10 1
    18   10   11 1
    19   10   40 1
    20   10   51 1
    21   11   12 1
    22   11   14 1
    23   11   41 1
    24   12   13 2
    25   12   16 1
    26   14   15 1
    27   14   42 1
    28   14   43 1
    29   15   21 1
    30   16   17 1
    31   16   52 1
    32   17   18 1
    33   17   45 1
    34   17   46 1
    35   18   19 1
    36   18   20 2
    37   19   44 1
    38   21   22 ar
    39   21   32 ar
    40   22   23 1
    41   22   26 ar
    42   23   24 1
    43   23   25 1
    44   26   27 ar
    45   26   47 1
    46   27   28 1
    47   27   31 ar
    48   28   29 1
    49   28   30 1
    50   31   32 ar
    51   31   48 1
    52   32   49 1
@<TRIPOS>SUBSTRUCTURE
     1 GDB         1 TEMP              0 ****  ****    0 ROOT
