@<TRIPOS>MOLECULE
molecule
   17    17     1     0     0
SMALL
bcc


@<TRIPOS>ATOM
      1 OAA          0.0000     0.0000     0.0000 o          1 GDE      -0.831300
      2 OAB          1.9550     0.0020    -1.0510 o          1 GDE      -0.831300
      3 OAD          1.4020    -0.0020     4.8630 oh         1 GDE      -0.527100
      4 OAE          4.1520    -0.0010     4.8600 oh         1 GDE      -0.522100
      5 CAF          3.4820     0.0000     1.2800 ca         1 GDE      -0.134000
      6 CAG          1.3870    -0.0010     2.4890 ca         1 GDE      -0.134000
      7 CAH          1.3480     0.0000     0.0000 c          1 GDE       0.882200
      8 CAI          4.1710     0.0000     2.4780 ca         1 GDE       0.057600
      9 CAJ          2.0800    -0.0010     3.6840 ca         1 GDE       0.057600
     10 CAK          2.0850    -0.0010     1.2780 ca         1 GDE      -0.082600
     11 CAL          3.4720    -0.0010     3.6840 ca         1 GDE       0.040100
     12 HOAC         5.8450     0.8520     2.2270 ho         1 GDE       0.409000
     13 HOAD         1.0230     0.8500     5.0080 ho         1 GDE       0.409000
     14 HOAE         4.3080    -0.8900     5.1330 ho         1 GDE       0.409000
     15 HAF          4.0250     0.0010     0.3420 ha         1 GDE       0.162500
     16 HAG          0.3030    -0.0020     2.4910 ha         1 GDE       0.162500
     17 OAC          5.5300     0.0000     2.4810 oh         1 GDE      -0.527100
@<TRIPOS>BOND
     1     1     7 1
     2     2     7 1
     3    17     8 1
     4     3     9 1
     5     4    11 1
     6     5     8 ar
     7     5    10 ar
     8     6     9 ar
     9     6    10 ar
    10     7    10 1
    11     8    11 ar
    12     9    11 ar
    13    17    12 1
    14     3    13 1
    15     4    14 1
    16     5    15 1
    17     6    16 1
@<TRIPOS>SUBSTRUCTURE
     1 GDE         1 TEMP              0 ****  ****    0 ROOT
