@<TRIPOS>MOLECULE
GDE
   17    16     1     0     0
SMALL
bcc


@<TRIPOS>ATOM
      1 OAA         0.8740   -0.7410   -1.3570 o         1 GDE     -0.532000
      2 OAB         2.8600   -1.7190   -1.7150 o         1 GDE     -0.532000
      3 OAD         2.1160   -0.6920    5.5100 oh        1 GDE     -0.328000
      4 OAE         4.1330   -1.0730    3.8050 oh        1 GDE     -0.223000
      5 CAF         3.0610    0.1330    1.1750 c1        1 GDE     -0.397000
      6 CAG         1.2070    1.1730    4.3190 c1        1 GDE     -0.188000
      7 CAH         2.0720   -0.9880   -1.0580 c2        1 GDE      0.407000
      8 CAI         3.6150    0.7480    2.3480 c3        1 GDE      0.209000
      9 CAJ         2.1830    0.1930    4.4190 c2        1 GDE     -0.179000
     10 CAK         2.6100   -0.3630    0.1780 c1        1 GDE     -0.004000
     11 CAL         3.2560   -0.0700    3.5820 c2        1 GDE      0.176000
     12 HOAC        5.3970    0.0890    1.9410 ho        1 GDE      0.222000
     13 HOAD        1.2560   -0.5370    5.9260 ho        1 GDE      0.238000
     14 HOAE        3.8360   -1.6060    4.5660 ho        1 GDE      0.254000
     15 HAF         3.2210    1.8000    2.4880 h1        1 GDE      0.134000
     16 HAG         1.2390    1.8880    3.4920 ha        1 GDE      0.069000
     17 OAC         5.0240    0.9070    2.2950 oh        1 GDE     -0.324000
@<TRIPOS>BOND
     1    1    7 1   
     2    2    7 1   
     3    3    9 1   
     4    3   13 1   
     5    4   11 1   
     6    4   14 1   
     7    5    8 1   
     8    5   10 1   
     9    6    9 1   
    10    6   16 1   
    11    7   10 1   
    12    8   11 1   
    13    8   15 1   
    14    8   17 1   
    15    9   11 1   
    16   12   17 1   
@<TRIPOS>SUBSTRUCTURE
     1 GDE         1 TEMP              0 ****  ****    0 ROOT
