@<TRIPOS>MOLECULE
molecule
   54    57     1     0     0
SMALL
bcc


@<TRIPOS>ATOM
      1 C4           0.0000     0.0000     0.0000 ca         1 GDH      -0.258000
      2 C5           1.3820     0.0000     0.0000 ca         1 GDH      -0.049000
      3 C6           2.0810     0.0000     1.1930 ca         1 GDH      -0.259000
      4 C7           1.3990    -0.0010     2.4000 ca         1 GDH       0.189100
      5 C10          4.1010    -0.0040     4.8730 ca         1 GDH       0.419600
      6 C15          5.9680    -0.0070     6.2220 ca         1 GDH       0.425200
      7 C17          0.0020     0.0010     2.4080 cp         1 GDH      -0.104000
      8 C20         -1.3390    -1.0940     5.7460 ca         1 GDH      -0.132000
      9 C21         -2.1260    -0.0050     6.0840 ca         1 GDH      -0.084300
     10 C22         -2.8910    -0.0110     7.3920 c3         1 GDH      -0.035100
     11 C26         -3.0800     2.2600     5.6290 c3         1 GDH      -0.035100
     12 C28         -1.5250     1.0950     4.0480 ca         1 GDH      -0.100000
     13 C3          -0.6970     0.0070     1.1980 ca         1 GDH       0.184100
     14 O8           2.0880    -0.0010     3.5710 os         1 GDH      -0.322900
     15 C9           3.5140    -0.0030     3.4860 c3         1 GDH       0.093100
     16 C11          3.2600    -0.0030     5.9700 ca         1 GDH      -0.226300
     17 C12          3.8110    -0.0060     7.2430 ca         1 GDH      -0.049300
     18 C14          5.1910    -0.0070     7.3650 ca         1 GDH      -0.255300
     19 N16          5.4100    -0.0110     5.0270 nb         1 GDH      -0.700000
     20 C18         -0.7360     0.0010     3.6950 cp         1 GDH      -0.015000
     21 C19         -0.6430    -1.0930     4.5540 ca         1 GDH      -0.109000
     22 C23         -2.2560     1.0250     8.3260 c3         1 GDH       0.176800
     23 N24         -2.7930     2.3510     8.0700 n7         1 GDH      -0.851200
     24 C25         -2.4170     2.9750     6.8110 c3         1 GDH       0.175800
     25 C27         -2.2160     1.0770     5.2440 ca         1 GDH      -0.087300
     26 H1          -0.5400     0.0020    -0.9390 ha         1 GDH       0.137000
     27 H2           1.9210    -0.0020    -0.9400 ha         1 GDH       0.132000
     28 H3           3.1640    -0.0010     1.1850 ha         1 GDH       0.139000
     29 H4           2.2530    -0.8510     8.4220 hc         1 GDH       0.048367
     30 H5           2.3550     0.9140     8.4950 hc         1 GDH       0.048367
     31 H6           3.5420    -0.0770     9.3530 hc         1 GDH       0.048367
     32 H7           7.0480    -0.0110     6.3090 h4         1 GDH       0.023100
     33 H8          -1.2690    -1.9420     6.4160 ha         1 GDH       0.127000
     34 H9          -3.9190     0.2700     7.2000 hc         1 GDH       0.059200
     35 H10         -2.8080    -0.9920     7.8450 hc         1 GDH       0.059200
     36 H11         -3.1360     2.9440     4.7900 hc         1 GDH       0.059200
     37 H12         -4.0550     1.9010     5.9350 hc         1 GDH       0.059200
     38 H13         -1.6960     1.8930     3.3360 ha         1 GDH       0.136000
     39 H14         -2.4160    -0.8720    -0.6320 h1         1 GDH       0.043033
     40 H15         -3.7720     0.0050     0.0910 h1         1 GDH       0.043033
     41 H16         -2.4330     0.8970    -0.6450 h1         1 GDH       0.043033
     42 H17          3.8460     0.8820     2.9540 h1         1 GDH       0.059200
     43 H18          3.8430    -0.8870     2.9540 h1         1 GDH       0.059200
     44 H19          2.1980    -0.1710     5.8390 ha         1 GDH       0.164000
     45 H20          5.6560    -0.0040     8.3430 ha         1 GDH       0.138000
     46 H21         -0.0840    -1.9710     4.2540 ha         1 GDH       0.133000
     47 H22         -2.4630     0.7500     9.3530 h1         1 GDH       0.030200
     48 H23         -1.1850     1.0390     8.1640 h1         1 GDH       0.030200
     49 H24         -2.5550     2.9590     8.8280 hn         1 GDH       0.357800
     50 H26         -1.3420     2.9030     6.6990 h1         1 GDH       0.034700
     51 H27         -2.7540     4.0040     6.8240 h1         1 GDH       0.034700
     52 O2          -2.0550     0.0080     1.1960 os         1 GDH      -0.315900
     53 C13          2.9280    -0.0050     8.4640 c3         1 GDH      -0.049800
     54 C1          -2.7020     0.0140    -0.0780 c3         1 GDH       0.127700
@<TRIPOS>BOND
     1    18     6 ar
     2    18    17 ar
     3    53    17 1
     4     6    19 ar
     5    17    16 ar
     6    19     5 ar
     7    16     5 ar
     8     5    15 1
     9    15    14 1
    10    10    22 1
    11    10     9 1
    12    23    22 1
    13    23    24 1
    14    11    25 1
    15    11    24 1
    16    14     4 1
    17     9    25 ar
    18     9     8 ar
    19    25    12 ar
    20     8    21 ar
    21    12    20 ar
    22    21    20 ar
    23     4     3 ar
    24     4     7 ar
    25    20     7 1
    26     3     2 ar
    27     7    13 ar
    28     2     1 ar
    29    13     1 ar
    30    13    52 1
    31    52    54 1
    32     1    26 1
    33     2    27 1
    34     3    28 1
    35    53    29 1
    36    53    30 1
    37    53    31 1
    38     6    32 1
    39     8    33 1
    40    10    34 1
    41    10    35 1
    42    11    36 1
    43    11    37 1
    44    12    38 1
    45    54    39 1
    46    54    40 1
    47    54    41 1
    48    15    42 1
    49    15    43 1
    50    16    44 1
    51    18    45 1
    52    21    46 1
    53    22    47 1
    54    22    48 1
    55    23    49 1
    56    24    50 1
    57    24    51 1
@<TRIPOS>SUBSTRUCTURE
     1 GDH         1 TEMP              0 ****  ****    0 ROOT
