@<TRIPOS>MOLECULE
GDI
   51    53     1     0     0
SMALL
bcc


@<TRIPOS>ATOM
      1 N1           0.0000     0.0000     0.0000 n7         1 GDI      -0.542200
      2 C2           1.9800     0.0000     1.4420 c3         1 GDI      -0.026400
      3 C3           1.4690     0.0000     0.0000 c3         1 GDI       0.144800
      4 C4          -0.5310    -1.2060     0.6490 c3         1 GDI       0.051500
      5 C5          -0.0790    -1.2410     2.1100 c3         1 GDI      -0.019400
      6 C6           1.4510    -1.2410     2.1670 c3         1 GDI      -0.023400
      7 C7          -2.0370    -1.1870     0.5890 c          1 GDI       0.567100
      8 O8          -2.6230    -0.1410     0.4040 o          1 GDI      -0.609100
      9 N9          -2.7310    -2.3310     0.7420 ns         1 GDI      -0.213900
     10 C10         -4.1950    -2.3120     0.6840 c3         1 GDI      -0.071600
     11 C11         -4.7480    -1.9650     2.0420 c2         1 GDI       0.387200
     12 C12         -4.7070    -3.6910     0.2630 c3         1 GDI       0.029900
     13 C13         -4.2550    -3.9870    -1.1440 ca         1 GDI      -0.092300
     14 C14         -3.0470    -4.6240    -1.3610 ca         1 GDI      -0.093500
     15 C15         -2.6290    -4.8960    -2.6470 ca         1 GDI      -0.089000
     16 C16         -3.4270    -4.5290    -3.7300 cp         1 GDI      -0.040000
     17 C17         -4.6440    -3.8880    -3.5050 ca         1 GDI      -0.089000
     18 C18         -5.0550    -3.6250    -2.2140 ca         1 GDI      -0.093500
     19 C19         -2.9830    -4.8190    -5.1140 cp         1 GDI      -0.008000
     20 C20         -3.7840    -4.4490    -6.1950 ca         1 GDI      -0.103000
     21 C21         -1.7610    -5.4560    -5.3350 ca         1 GDI      -0.103000
     22 C22         -3.3740    -4.7190    -7.4810 ca         1 GDI      -0.065500
     23 C23         -1.3480    -5.7250    -6.6200 ca         1 GDI      -0.065500
     24 C24         -2.1530    -5.3620    -7.7040 ca         1 GDI       0.024000
     25 C25         -1.7240    -5.6420    -9.0410 cg         1 GDI       0.229800
     26 N26         -1.4000    -5.8750   -10.1040 n1         1 GDI      -0.378800
     27 N27         -3.9520    -1.7420     3.0190 n2         1 GDI      -0.636100
     28 H11         -5.8190    -1.9030     2.1920 h4         1 GDI      -0.006200
     29 H1          -0.3340     0.0460    -0.9420 hn         1 GDI       0.259800
     30 H31C         1.8280     0.8860    -0.5090 h1         1 GDI       0.005700
     31 H32C         1.8280    -0.8860    -0.5090 h1         1 GDI       0.005700
     32 H4          -0.1560    -2.0830     0.1370 h1         1 GDI       0.007700
     33 H21C         1.6280     0.8900     1.9490 hc         1 GDI       0.022700
     34 H22C         3.0630    -0.0180     1.4410 hc         1 GDI       0.022700
     35 H61C         1.8300    -2.1320     1.6800 hc         1 GDI       0.013700
     36 H62C         1.7740    -1.2210     3.2000 hc         1 GDI       0.013700
     37 H51C        -0.4590    -0.3680     2.6270 hc         1 GDI       0.024700
     38 H52C        -0.4570    -2.1400     2.5830 hc         1 GDI       0.024700
     39 H9          -2.2500    -3.1860     0.9410 hn         1 GDI       0.181500
     40 H10         -4.5180    -1.5710    -0.0370 h1         1 GDI       0.075700
     41 H121        -4.3110    -4.4430     0.9350 hc         1 GDI       0.029200
     42 H122        -5.7890    -3.7030     0.3050 hc         1 GDI       0.029200
     43 H27         -2.9620    -1.7990     2.8800 hn         1 GDI       0.315400
     44 H14         -2.4270    -4.9080    -0.5190 ha         1 GDI       0.106500
     45 H18         -6.0010    -3.1260    -2.0390 ha         1 GDI       0.106500
     46 H15         -1.6830    -5.3950    -2.8160 ha         1 GDI       0.113000
     47 H17         -5.2700    -3.6020    -4.3420 ha         1 GDI       0.113000
     48 H20         -4.7310    -3.9510    -6.0220 ha         1 GDI       0.117500
     49 H21         -1.1370    -5.7380    -4.4950 ha         1 GDI       0.117500
     50 H22         -3.9970    -4.4340    -8.3200 ha         1 GDI       0.113500
     51 H23         -0.4000    -6.2210    -6.7920 ha         1 GDI       0.113500
@<TRIPOS>BOND
     1     1     3 1   
     2     1     4 1   
     3     1    29 1   
     4     2     3 1   
     5     2     6 1   
     6     2    33 1   
     7     2    34 1   
     8     3    30 1   
     9     3    31 1   
    10     4     5 1   
    11     4     7 1   
    12     4    32 1   
    13     5     6 1   
    14     5    37 1   
    15     5    38 1   
    16     6    35 1   
    17     6    36 1   
    18     7     8 2   
    19     7     9 1   
    20     9    10 1   
    21     9    39 1   
    22    10    11 1   
    23    10    12 1   
    24    10    40 1   
    25    11    27 2   
    26    11    28 1   
    27    12    13 1   
    28    12    41 1   
    29    12    42 1   
    30    13    14 ar  
    31    13    18 ar  
    32    14    15 ar  
    33    14    44 1   
    34    15    16 ar  
    35    15    46 1   
    36    16    17 ar  
    37    16    19 1   
    38    17    18 ar  
    39    17    47 1   
    40    18    45 1   
    41    19    20 ar  
    42    19    21 ar  
    43    20    22 ar  
    44    20    48 1   
    45    21    23 ar  
    46    21    49 1   
    47    22    24 ar  
    48    22    50 1   
    49    23    24 ar  
    50    23    51 1   
    51    24    25 1   
    52    25    26 3   
    53    27    43 1   
@<TRIPOS>SUBSTRUCTURE
     1 GDI         1 TEMP              0 ****  ****    0 ROOT
