@<TRIPOS>MOLECULE
molecule
   37    39     1     0     0
SMALL
bcc


@<TRIPOS>ATOM
      1 N1           0.0000     0.0000     0.0000 nb         1 GDK      -0.653000
      2 C4           1.5530    -0.6900    -2.3860 ca         1 GDK      -0.092500
      3 C5           2.0630     0.0000    -1.2870 cp         1 GDK      -0.143500
      4 C6           3.2670     0.6930    -1.4030 ca         1 GDK      -0.092500
      5 C7           3.9480     0.6910    -2.6040 ca         1 GDK      -0.139000
      6 C8           1.3270     0.0000     0.0000 cp         1 GDK       0.459800
      7 C10         -0.0570    -0.0010     2.3500 ca         1 GDK      -0.217300
      8 C13          4.0410    -0.0020     2.4810 c3         1 GDK       0.089100
      9 C15          6.0570    -0.0010     1.0040 ca         1 GDK      -0.228300
     10 C17          8.2360    -0.0010     1.9650 ca         1 GDK      -0.252300
     11 C2           3.4370     0.0030    -3.6910 ca         1 GDK      -0.073300
     12 C3           2.2450    -0.6900    -3.5800 ca         1 GDK      -0.139000
     13 C12          2.0360     0.0000     1.2060 ca         1 GDK       0.030800
     14 C11          1.3290    -0.0020     2.4010 ca         1 GDK      -0.185000
     15 C9          -0.6910    -0.0010     1.1210 ca         1 GDK       0.384200
     16 O            3.3940    -0.0000     1.2070 os         1 GDK      -0.323900
     17 C14          5.5360    -0.0020     2.2850 ca         1 GDK       0.416600
     18 N2           6.3310    -0.0020     3.3370 nb         1 GDK      -0.694000
     19 C18          7.6440    -0.0020     3.2130 ca         1 GDK       0.423200
     20 C16          7.4330    -0.0060     0.8360 ca         1 GDK      -0.094000
     21 H1           0.6190    -1.2310    -2.3000 ha         1 GDK       0.144500
     22 H2           3.6670     1.2310    -0.5530 ha         1 GDK       0.144500
     23 H3           4.8840     1.2280    -2.6950 ha         1 GDK       0.130500
     24 H4          -0.6370    -0.0020     3.2650 ha         1 GDK       0.140000
     25 H5           3.7500    -0.8870     3.0330 h1         1 GDK       0.059200
     26 H6           3.7500     0.8820     3.0350 h1         1 GDK       0.059200
     27 H8           9.3150    -0.0030     1.8710 ha         1 GDK       0.139000
     28 H12          1.8500    -1.2260    -4.4340 ha         1 GDK       0.130500
     29 H13          1.8480    -0.0020     3.3520 ha         1 GDK       0.146000
     30 H14         -1.7730    -0.0010     1.0800 h4         1 GDK       0.026100
     31 H15          8.2650    -0.0010     4.1010 h4         1 GDK       0.025100
     32 H16          7.8700    -0.0060    -0.1560 ha         1 GDK       0.140000
     33 C1           4.1860     0.0050    -4.9990 c3         1 GDK      -0.049800
     34 H7           5.3990    -0.0050     0.1440 ha         1 GDK       0.162000
     35 H9           4.6530    -0.9610    -5.1490 hc         1 GDK       0.043367
     36 H10          3.4950     0.2010    -5.8100 hc         1 GDK       0.043367
     37 H11          4.9470     0.7750    -4.9780 hc         1 GDK       0.043367
@<TRIPOS>BOND
     1    10    19 ar
     2    10    20 ar
     3    19    18 ar
     4    20     9 ar
     5    18    17 ar
     6     9    17 ar
     7    17     8 1
     8     8    16 1
     9    33    11 1
    10    16    13 1
    11     5    11 ar
    12     5     4 ar
    13    11    12 ar
    14     4     3 ar
    15    12     2 ar
    16    13    14 ar
    17    13     6 ar
    18     3     2 ar
    19     3     6 1
    20    14     7 ar
    21     6     1 ar
    22     7    15 ar
    23     1    15 ar
    24     2    21 1
    25     4    22 1
    26     5    23 1
    27     7    24 1
    28     8    25 1
    29     8    26 1
    30     9    34 1
    31    10    27 1
    32    33    35 1
    33    33    36 1
    34    33    37 1
    35    12    28 1
    36    14    29 1
    37    15    30 1
    38    19    31 1
    39    20    32 1
@<TRIPOS>SUBSTRUCTURE
     1 GDK         1 TEMP              0 ****  ****    0 ROOT
