@<TRIPOS>MOLECULE
molecule
   28    28     1     0     0
SMALL
bcc


@<TRIPOS>ATOM
      1 C1           0.0000     0.0000     0.0000 c          1 GDL       0.719600
      2 C2           1.5120     0.0000     0.0000 c3         1 GDL       0.012700
      3 C3           1.9970     0.0000     1.4540 c3         1 GDL       0.119100
      4 C4           1.3420     1.1660     2.2010 c3         1 GDL       0.093100
      5 C5          -0.1780     0.9900     2.1860 c3         1 GDL       0.168100
      6 C6          -0.8400     2.1970     2.8530 c3         1 GDL       0.150400
      7 C8           2.7530    -2.3980    -2.7140 c3         1 GDL      -0.167100
      8 N1           2.0070    -1.1970    -0.6850 ns         1 GDL      -0.568900
      9 O1          -0.6250    -0.7670    -0.6940 o          1 GDL      -0.533500
     10 O3           3.4180     0.1480     1.4850 oh         1 GDL      -0.591800
     11 O4           1.8080     1.1890     3.5510 oh         1 GDL      -0.599800
     12 O5          -0.6270     0.8850     0.8040 os         1 GDL      -0.419900
     13 O6          -2.2590     2.0320     2.8370 oh         1 GDL      -0.592800
     14 O7           2.0500    -0.1470    -2.6370 o          1 GDL      -0.600100
     15 H2           1.8740     0.8890    -0.5030 h1         1 GDL       0.125700
     16 H3           1.7150    -0.9330     1.9270 h1         1 GDL       0.050700
     17 H4           1.6010     2.0960     1.7090 h1         1 GDL       0.064700
     18 H5          -0.4420     0.0850     2.7200 h1         1 GDL       0.077700
     19 H6C1        -0.5760     3.0990     2.3130 h1         1 GDL       0.038700
     20 H6C2        -0.4970     2.2760     3.8780 h1         1 GDL       0.038700
     21 H8C1         2.7930    -2.2140    -3.7800 hc         1 GDL       0.063033
     22 H8C2         2.0870    -3.2290    -2.5150 hc         1 GDL       0.063033
     23 H8C3         3.7460    -2.6370    -2.3510 hc         1 GDL       0.063033
     24 HB           2.1520    -2.0430    -0.1700 hn         1 GDL       0.316500
     25 HC           3.7860    -0.4770     2.0880 ho         1 GDL       0.414000
     26 HD           2.4320     1.8880     3.6560 ho         1 GDL       0.419000
     27 H6          -2.6640     2.7420     3.3090 ho         1 GDL       0.407000
     28 C7           2.2440    -1.1670    -2.0100 c          1 GDL       0.670100
@<TRIPOS>BOND
     1     1     2 1
     2     1     9 2
     3     1    12 1
     4     2     3 1
     5     2     8 1
     6     2    15 1
     7     3     4 1
     8     3    10 1
     9     3    16 1
    10     4     5 1
    11     4    11 1
    12     4    17 1
    13     5     6 1
    14     5    12 1
    15     5    18 1
    16     6    13 1
    17     6    19 1
    18     6    20 1
    19    28     7 1
    20    28     8 1
    21    28    14 2
    22     7    21 1
    23     7    22 1
    24     7    23 1
    25     8    24 1
    26    10    25 1
    27    11    26 1
    28    13    27 1
@<TRIPOS>SUBSTRUCTURE
     1 GDL         1 TEMP              0 ****  ****    0 ROOT
