@<TRIPOS>MOLECULE
GDN
   50    50     1     0     0
SMALL
bcc


@<TRIPOS>ATOM
      1 N1           0.0000     0.0000     0.0000 nz         1 GDN       0.092400
      2 CA1          1.4410     0.0000     0.0000 c3         1 GDN      -0.222500
      3 C1           1.8720     0.0000     1.4530 c          1 GDN       0.942600
      4 O11          3.0240    -0.6980     1.6390 o          1 GDN      -0.820800
      5 O12          1.2970     0.5860     2.3610 o          1 GDN      -0.820800
      6 CB1          2.0250     1.2150    -0.7260 c3         1 GDN       0.001600
      7 CG1          1.6540     1.2740    -2.2080 c3         1 GDN      -0.125400
      8 CD1          2.0980     0.0530    -2.9960 c          1 GDN       0.572100
      9 OE1          3.1040    -0.5960    -2.7220 o          1 GDN      -0.613100
     10 N2           1.2470    -0.2070    -4.0600 ns         1 GDN      -0.195900
     11 CA2          1.4610    -1.2970    -4.9820 c3         1 GDN      -0.055300
     12 C2           1.0060    -0.8650    -6.3750 c          1 GDN       0.565100
     13 O2           0.4420     0.2050    -6.5920 o          1 GDN      -0.625100
     14 CB2          0.8090    -2.5980    -4.5070 c3         1 GDN       0.068700
     15 SG2         -1.0070    -2.5060    -4.3820 ss         1 GDN      -0.223000
     16 N3           1.2820    -1.8250    -7.3380 ns         1 GDN      -0.143900
     17 CA3          0.9260    -1.6580    -8.7280 c3         1 GDN      -0.083000
     18 C3          -0.4490    -2.2150    -8.9400 c          1 GDN       0.967600
     19 O31         -1.0630    -1.5570    -9.9570 o          1 GDN      -0.890300
     20 O32         -0.9700    -3.1230    -8.3100 o          1 GDN      -0.890300
     21 C1'         -1.3480    -4.1450    -3.8240 ca         1 GDN       0.186900
     22 C2'         -1.9920    -4.4250    -2.6020 ca         1 GDN      -0.465200
     23 C3'         -2.2370    -5.7400    -2.2070 ca         1 GDN       0.094000
     24 C4'         -1.8470    -6.7990    -3.0250 ca         1 GDN      -0.482200
     25 C5'         -1.2080    -6.5430    -4.2390 ca         1 GDN       0.063000
     26 C6'         -0.9620    -5.2290    -4.6340 ca         1 GDN      -0.111000
     27 N2'         -2.4080    -3.3750    -1.7340 no         1 GDN       1.023200
     28 O2A         -2.9770    -3.6710    -0.6580 o          1 GDN      -0.452000
     29 O2B         -2.1940    -2.1890    -2.0760 o          1 GDN      -0.452000
     30 N4'         -2.0960    -8.1380    -2.6230 no         1 GDN       1.022200
     31 O4A         -1.7360    -9.0760    -3.3750 o          1 GDN      -0.445500
     32 O4B         -2.6710    -8.3470    -1.5270 o          1 GDN      -0.445500
     33 HN1         -0.3340     0.9150     0.2300 hn         1 GDN       0.211800
     34 HN2A        -0.3340    -0.6570     0.6780 hn         1 GDN       0.211800
     35 HA1          1.7970    -0.9050    -0.4770 hx         1 GDN       0.109700
     36 HB11         3.1040     1.1850    -0.6390 hc         1 GDN       0.053200
     37 HB12         1.6630     2.1150    -0.2420 hc         1 GDN       0.053200
     38 HG11         2.1140     2.1530    -2.6450 hc         1 GDN       0.028700
     39 HG12         0.5780     1.3680    -2.2920 hc         1 GDN       0.028700
     40 HN2          0.4520     0.3870    -4.1950 hn         1 GDN       0.208500
     41 HA2          2.5290    -1.4730    -5.0320 h1         1 GDN       0.060700
     42 HB21         1.2090    -2.8490    -3.5320 h1         1 GDN       0.045200
     43 HB22         1.0670    -3.3880    -5.2010 h1         1 GDN       0.045200
     44 HN3          1.7460    -2.6660    -7.0590 hn         1 GDN       0.152500
     45 HA31         1.6340    -2.1900    -9.3510 h1         1 GDN       0.033700
     46 HA32         0.9360    -0.6050    -8.9830 h1         1 GDN       0.033700
     47 H3'         -2.7330    -5.9390    -1.2640 ha         1 GDN       0.166000
     48 H5'         -0.9050    -7.3660    -4.8750 ha         1 GDN       0.144000
     49 H6'         -0.4660    -5.0400    -5.5790 ha         1 GDN       0.165000
     50 H13         -0.3340    -0.2460    -0.9110 hn         1 GDN       0.211800
@<TRIPOS>BOND
     1     1     2 1   
     2     1    33 1   
     3     1    34 1   
     4     1    50 1   
     5     2     3 1   
     6     2     6 1   
     7     2    35 1   
     8     3     4 1   
     9     3     5 1   
    10     6     7 1   
    11     6    36 1   
    12     6    37 1   
    13     7     8 1   
    14     7    38 1   
    15     7    39 1   
    16     8     9 2   
    17     8    10 1   
    18    10    11 1   
    19    10    40 1   
    20    11    12 1   
    21    11    14 1   
    22    11    41 1   
    23    12    13 2   
    24    12    16 1   
    25    14    15 1   
    26    14    42 1   
    27    14    43 1   
    28    15    21 1   
    29    16    17 1   
    30    16    44 1   
    31    17    18 1   
    32    17    45 1   
    33    17    46 1   
    34    18    19 1   
    35    18    20 1   
    36    21    22 ar  
    37    21    26 ar  
    38    22    23 ar  
    39    22    27 1   
    40    23    24 ar  
    41    23    47 1   
    42    24    25 ar  
    43    24    30 1   
    44    25    26 ar  
    45    25    48 1   
    46    26    49 1   
    47    27    28 1   
    48    27    29 1   
    49    30    31 1   
    50    30    32 1   
@<TRIPOS>SUBSTRUCTURE
     1 GDN         1 TEMP              0 ****  ****    0 ROOT
