@<TRIPOS>MOLECULE
GDQ
   24    25     1     0     0
SMALL
bcc


@<TRIPOS>ATOM
      1 C7           0.0000     0.0000     0.0000 c3         1 GDQ       0.032600
      2 C4           0.0670     2.4270     0.6810 c3         1 GDQ       0.194100
      3 C2           2.2760     1.2360     0.4510 cx         1 GDQ       0.025500
      4 C1           1.5140     0.0000     0.0000 cx         1 GDQ       0.069500
      5 O4          -0.6050     3.3900     1.4940 oh         1 GDQ      -0.562800
      6 C5          -0.5840     1.0780     0.8880 c3         1 GDQ      -0.068700
      7 C6          -2.0810     1.2030     0.5940 c3         1 GDQ       0.232400
      8 O6          -2.6690     2.1330     1.5040 oh         1 GDQ      -0.563800
      9 C3           1.5390     2.4310     1.0360 c3         1 GDQ       0.203100
     10 O3           2.1330     3.6310     0.5360 oh         1 GDQ      -0.592800
     11 N2           2.2560     0.0000     1.2590 n5         1 GDQ      -0.586200
     12 H1          -0.3480     0.1570    -1.0140 hc         1 GDQ       0.018700
     13 H2          -0.3480    -0.9650     0.3490 hc         1 GDQ       0.018700
     14 H3          -0.0390     2.7070    -0.3600 h1         1 GDQ       0.008700
     15 H4           3.2180     1.4120    -0.0530 h1         1 GDQ       0.058700
     16 H5           2.0020    -0.5470    -0.7970 h1         1 GDQ       0.042700
     17 H6          -0.5510     4.2390     1.0860 ho         1 GDQ       0.388000
     18 H7          -0.4510     0.7850     1.9220 hc         1 GDQ       0.056700
     19 H8          -2.5530     0.2350     0.7110 h1         1 GDQ      -0.017300
     20 H9          -2.2210     1.5520    -0.4220 h1         1 GDQ      -0.017300
     21 H10         -3.5990     1.9860     1.5460 ho         1 GDQ       0.375000
     22 H11          1.6380     2.4080     2.1150 h1         1 GDQ       0.028700
     23 H12          2.7170     3.9870     1.1860 ho         1 GDQ       0.393000
     24 H13          3.1190    -0.4920     1.1370 hn         1 GDQ       0.261800
@<TRIPOS>BOND
     1     1     4 1   
     2     1     6 1   
     3     1    12 1   
     4     1    13 1   
     5     2     5 1   
     6     2     6 1   
     7     2     9 1   
     8     2    14 1   
     9     3     4 1   
    10     3     9 1   
    11     3    11 1   
    12     3    15 1   
    13     4    11 1   
    14     4    16 1   
    15     5    17 1   
    16     6     7 1   
    17     6    18 1   
    18     7     8 1   
    19     7    19 1   
    20     7    20 1   
    21     8    21 1   
    22     9    10 1   
    23     9    22 1   
    24    10    23 1   
    25    11    24 1   
@<TRIPOS>SUBSTRUCTURE
     1 GDQ         1 TEMP              0 ****  ****    0 ROOT
