@<TRIPOS>MOLECULE
GDS
   74    64     1     0     0
SMALL
bcc


@<TRIPOS>ATOM
      1 N1        -65.3070   31.9710   88.0280 n3        1 GDS     -0.431000
      2 CA1       -65.1410   33.9530   84.5260 cx        1 GDS     -0.041000
      3 C1        -64.3620   32.7790   84.1640 cu        1 GDS      0.301000
      4 OE1       -63.8890   31.8470   83.5710 o         1 GDS     -0.176000
      5 OE2       -64.2030   33.2600   85.4470 os        1 GDS     -0.299000
      6 CB1       -66.5850   33.8420   84.9110 c3        1 GDS     -0.151000
      7 CG1       -66.8680   34.7270   86.1150 c3        1 GDS     -0.175000
      8 CD1       -68.0010   34.1760   86.9330 c2        1 GDS      0.314000
      9 O1        -69.2640   34.6540   86.8350 os        1 GDS     -0.192000
     10 N2        -67.8660   33.1630   87.7760 n3        1 GDS     -0.295000
     11 CA2        49.9600  -26.0660  -69.4370 c2        1 GDS     -0.261000
     12 C2         49.1300  -26.7840  -70.2070 c1        1 GDS      0.357000
     13 O2         48.3800  -27.4310  -70.8450 o         1 GDS     -0.078000
     14 CB2        50.9330  -25.2440  -69.9540 c1        1 GDS     -0.703000
     15 SG2        51.9090  -24.4190  -70.4540 ss        1 GDS      1.125000
     16 N3        -69.9520   36.9150   86.6410 n4        1 GDS     -0.003000
     17 CA3       -69.3950   35.7660   85.9390 c2        1 GDS     -0.451000
     18 C3        -72.8940   39.6620   86.5890 c1        1 GDS      0.434500
     19 OE3       -71.9610   38.9110   86.5630 o         1 GDS     -0.217000
     20 OE4       -73.8140   40.4040   86.6140 o         1 GDS     -0.217000
     21 CA4        52.2090  -24.1260  -74.5930 c1        1 GDS      0.115000
     22 C4         51.6090  -24.7240  -73.3440 c2        1 GDS      0.251000
     23 OE5        52.2770  -24.3610  -72.2820 os        1 GDS     -0.580000
     24 OE6        50.5830  -25.4130  -73.3210 o         1 GDS     -0.359000
     25 C5         53.9990  -23.9830  -76.2120 c2        1 GDS      0.257000
     26 O5         53.7580  -24.6820  -77.1820 o         1 GDS     -0.180000
     27 CA5        54.7660  -22.6590  -76.2180 c3        1 GDS     -0.018000
     28 N5         54.2280  -21.6080  -75.4320 n         1 GDS     -0.378000
     29 CB5        54.4390  -22.4420  -70.0350 c2        1 GDS     -0.267000
     30 SG5        53.5070  -23.2430  -69.1280 s         1 GDS      0.099000
     31 CA6        50.6860  -20.0210  -73.4140 c1        1 GDS      0.059000
     32 C6         56.4330  -18.6700  -69.8080 c1        1 GDS      0.434500
     33 OE7        55.7930  -19.5760  -70.2510 o         1 GDS     -0.217000
     34 OE8        57.0680  -17.7680  -69.3730 o         1 GDS     -0.217000
     35 N6         49.5520  -19.7110  -73.4040 n2        1 GDS     -0.345000
     36 CD6        54.4920  -21.4740  -74.0760 c2        1 GDS      0.332000
     37 O6         55.0150  -22.4380  -73.4670 o         1 GDS     -0.428000
     38 HN11      -64.6540   32.5090   87.4910 hn        1 GDS      0.164333
     39 HN12      -65.3180   31.0340   87.6770 hn        1 GDS      0.164333
     40 HA1       -64.7990   34.9660   84.2290 h1        1 GDS      0.169000
     41 HB11      -67.1570   35.7630   85.7690 hc        1 GDS      0.158000
     42 HB12      -67.2190   34.1630   84.0410 hc        1 GDS      0.121000
     43 HG11      -65.9500   34.8010   86.7610 hc        1 GDS      0.158000
     44 HG12      -66.8350   32.7710   85.1370 hc        1 GDS      0.121000
     45 HN2       -66.9490   32.6950   87.8920 hn        1 GDS      0.291500
     46 HA2        49.8290  -26.1600  -68.3420 ha        1 GDS      0.194000
     47 HB21      -69.9860   39.5930   85.1040 ha        1 GDS      0.002750
     48 HB22      -70.3780   39.3050   84.6320 ha        1 GDS      0.002750
     49 HN3       -70.8730   36.7740   87.0700 hn        1 GDS      0.220000
     50 HA31      -70.0310   37.6660   85.9440 hn        1 GDS      0.220000
     51 HA32      -70.0530   35.4230   85.1120 hx        1 GDS      0.127000
     52 HN4        53.7170  -25.5490  -74.8500 hn        1 GDS      0.273500
     53 HA41       50.6730  -25.2430  -75.6900 DU        1 GDS      0.043000
     54 HA42       51.2860  -25.0350  -75.9400 DU        1 GDS      0.043000
     55 HA5        54.8100  -22.3400  -77.3040 h1        1 GDS      0.158000
     56 HN5        53.6930  -20.9050  -75.8920 hn        1 GDS      0.263000
     57 HB51       55.2680  -21.8090  -69.6640 h4        1 GDS      0.153500
     58 HB52       55.8120  -22.9190  -75.8640 h1        1 GDS      0.158000
     59 HA6        54.3720  -18.0610  -73.4680 hc        1 GDS      0.090000
     60 HN61       48.6170  -19.4530  -73.3960 hn        1 GDS      0.292000
     61 HN62       51.7360  -21.6410  -71.8930 ha        1 GDS      0.002750
     62 HB61       55.6280  -19.0010  -74.3730 hc        1 GDS      0.090000
     63 HB62       53.9580  -18.8100  -75.0580 hc        1 GDS      0.090000
     64 HG61       52.9810  -20.1950  -73.2450 hc        1 GDS      0.149500
     65 HG62       54.5740  -20.2180  -72.3550 hc        1 GDS      0.149500
     66 CG6        54.1050  -20.1930  -73.3790 c3        1 GDS     -0.199000
     67 H13       -65.0070   31.9530   88.9820 hn        1 GDS      0.164333
     68 H22       -68.6480   32.8220   88.2930 hn        1 GDS      0.291500
     69 H32       -69.3050   37.2100   87.3710 hn        1 GDS      0.220000
     70 H52        54.3890  -22.3970  -71.1420 h4        1 GDS      0.153500
     71 H63        51.9620  -22.0720  -71.4170 ha        1 GDS      0.002750
     72 H42        54.1690  -24.1070  -74.1140 hn        1 GDS      0.273500
     73 N4         53.5730  -24.5290  -74.8700 n4        1 GDS     -0.163000
     74 CB6        54.5420  -18.9560  -74.1170 c3        1 GDS     -0.215000
@<TRIPOS>BOND
     1    1   38 1   
     2    1   39 1   
     3    1   67 1   
     4    2    3 1   
     5    2    5 1   
     6    2    6 1   
     7    2   40 1   
     8    3    4 1   
     9    3    5 1   
    10    6    7 1   
    11    6   42 1   
    12    6   44 1   
    13    7    8 1   
    14    7   41 1   
    15    7   43 1   
    16    8    9 1   
    17    8   10 1   
    18    9   17 1   
    19   10   45 1   
    20   10   68 1   
    21   11   12 1   
    22   11   14 1   
    23   11   46 1   
    24   12   13 1   
    25   14   15 1   
    26   15   23 1   
    27   16   17 1   
    28   16   49 1   
    29   16   50 1   
    30   16   69 1   
    31   17   51 1   
    32   18   19 1   
    33   18   20 1   
    34   21   22 1   
    35   21   73 1   
    36   22   23 1   
    37   22   24 1   
    38   25   26 1   
    39   25   27 1   
    40   25   73 1   
    41   27   28 1   
    42   27   55 1   
    43   27   58 1   
    44   28   36 1   
    45   28   56 1   
    46   29   30 1   
    47   29   57 1   
    48   29   70 1   
    49   31   35 1   
    50   32   33 1   
    51   32   34 1   
    52   35   60 1   
    53   36   37 1   
    54   36   66 1   
    55   47   48 1   
    56   52   73 1   
    57   59   74 1   
    58   61   71 1   
    59   62   74 1   
    60   63   74 1   
    61   64   66 1   
    62   65   66 1   
    63   66   74 1   
    64   72   73 1   
@<TRIPOS>SUBSTRUCTURE
     1 GDS         1 TEMP              0 ****  ****    0 ROOT
