@<TRIPOS>MOLECULE
GDT
   81    87     1     0     0
SMALL
bcc


@<TRIPOS>ATOM
      1 C1           0.0000     0.0000     0.0000 c2         1 GDT      -0.477000
      2 C2           1.3520     0.0000     0.0000 c3         1 GDT       0.022000
      3 C3           2.0830     0.0000     1.2680 c3         1 GDT      -0.004000
      4 C4           3.4170    -0.0010     1.2690 c2         1 GDT      -0.533000
      5 C5           4.1700    -0.0000     2.5740 DU         1 GDT       0.021000
      6 C6           5.1410    -1.1830     2.6030 c3         1 GDT      -0.104000
      7 O37         -0.1220     0.0000    -2.3210 o          1 GDT      -0.477000
      8 C12         -0.7310     0.0000    -1.2670 c3         1 GDT       0.308000
      9 N13         -2.0790     0.0010    -1.2670 n7         1 GDT       0.032000
     10 C14         -2.8100     0.0010    -2.5370 c3         1 GDT      -0.082000
     11 C34         -2.9570    -1.4360    -3.0410 c3         1 GDT       0.074000
     12 C36         -1.5700    -2.0520    -3.2340 c3         1 GDT      -0.180000
     13 O35         -3.6900    -2.2040    -2.0850 oh         1 GDT      -0.313000
     14 C15         -4.1760     0.6020    -2.3290 c2         1 GDT       0.237000
     15 O33         -4.5950     0.7840    -1.2050 o          1 GDT      -0.406000
     16 N16         -4.9340     0.9370    -3.3920 ns         1 GDT       0.017000
     17 C17         -6.3030     1.4210    -3.1920 c3         1 GDT      -0.080000
     18 C31         -7.2430     0.6560    -4.0830 c2         1 GDT       0.228000
     19 O32         -8.3930     1.0220    -4.2070 o          1 GDT      -0.409000
     20 N30         -6.8080    -0.4430    -4.7480 ns         1 GDT      -0.019000
     21 C28         -7.6540    -0.9330    -5.8580 DU         1 GDT      -0.008000
     22 C29         -9.1300    -0.7000    -5.5270 c3         1 GDT      -0.152000
     23 C27         -7.2760    -0.1530    -7.0980 c2         1 GDT      -0.140000
     24 C26         -7.0500     1.1500    -6.9900 c2         1 GDT      -0.226000
     25 C24         -6.6540     1.9640    -8.1480 c3         1 GDT       0.369000
     26 O25         -6.6780     1.5010    -9.2710 o          1 GDT      -0.426000
     27 N23         -6.2600     3.2480    -7.9320 n7         1 GDT      -0.031000
     28 C22         -6.1930     3.7220    -6.5360 c3         1 GDT      -0.063000
     29 C21         -5.1930     2.8610    -5.7620 c3         1 GDT      -0.185000
     30 C19         -5.1180     3.3260    -4.3090 c3         1 GDT       0.083000
     31 O20         -3.9750     2.7400    -3.6840 oh         1 GDT      -0.322000
     32 C18         -6.3790     2.9080    -3.5540 c3         1 GDT      -0.134000
     33 C7           5.9060    -1.1830     3.9280 c3         1 GDT      -0.113000
     34 C8           6.8760    -2.3650     3.9570 c3         1 GDT      -0.106000
     35 C9           7.6410    -2.3640     5.2820 c3         1 GDT      -0.109000
     36 C10          8.6120    -3.5460     5.3100 c3         1 GDT      -0.107000
     37 C11          9.3760    -3.5460     6.6360 c3         1 GDT      -0.112000
     38 H1          -0.1460     0.8750    -0.6220 DU         1 GDT       0.137000
     39 H2           1.4980     0.8750     0.6220 DU         1 GDT       0.250500
     40 H3           1.9370    -0.8750     0.6460 DU         1 GDT       0.250500
     41 H4           3.5610     0.8740     1.8920 DU         1 GDT       0.193000
     42 H5           3.4690    -0.0890     3.3950 ha         1 GDT       0.049000
     43 H5A          4.7240     0.9250     2.6710 ha         1 GDT       0.049000
     44 H6           5.8420    -1.0940     1.7820 hc         1 GDT       0.067000
     45 H6A          4.5870    -2.1080     2.5060 hc         1 GDT       0.067000
     46 HN13        -2.5800     0.0370    -0.4020 hn         1 GDT       0.131000
     47 H14         -2.2660     0.5860    -3.2680 h1         1 GDT       0.110000
     48 H34         -3.4870    -1.4350    -3.9860 h1         1 GDT       0.030000
     49 H36         -0.9370    -1.3550    -3.7710 hc         1 GDT       0.068000
     50 H36A        -1.1320    -2.2670    -2.2670 hc         1 GDT       0.068000
     51 H36B        -1.6590    -2.9700    -3.8020 hc         1 GDT       0.068000
     52 HO35        -3.8050    -3.0820    -2.4090 ho         1 GDT       0.194000
     53 HN16        -4.5750     0.8200    -4.3190 hn         1 GDT       0.112000
     54 H17         -6.5900     1.2840    -2.1560 h1         1 GDT       0.136000
     55 HN30        -5.8440    -0.7090    -4.6990 hn         1 GDT       0.100000
     56 H28         -7.4750    -1.9890    -6.0190 ha         1 GDT       0.077000
     57 H29         -9.3800     0.3390    -5.7020 hc         1 GDT       0.081333
     58 H29A        -9.3100    -0.9450    -4.4870 hc         1 GDT       0.081333
     59 H29B        -9.7460    -1.3300    -6.1570 hc         1 GDT       0.081333
     60 H27         -8.2820    -0.2020    -6.7000 DU         1 GDT       0.137000
     61 H26         -7.7300     1.4470    -7.7790 DU         1 GDT       0.053000
     62 HN23        -6.2700     3.9070    -8.6850 hn         1 GDT       0.104000
     63 H22         -5.8700     4.7560    -6.5200 h1         1 GDT       0.061000
     64 H22A        -7.1710     3.6400    -6.0780 h1         1 GDT       0.061000
     65 H21         -4.2150     2.9500    -6.2190 hc         1 GDT       0.088500
     66 H21A        -5.5110     1.8260    -5.7920 hc         1 GDT       0.088500
     67 H19         -5.0260     4.4050    -4.2820 h1         1 GDT       0.044000
     68 HO20        -3.3310     3.4080    -3.5170 ho         1 GDT       0.178000
     69 H18         -6.4670     3.4950    -2.6480 hc         1 GDT       0.083000
     70 H18A        -7.2460     3.0810    -4.1800 hc         1 GDT       0.083000
     71 H7           6.4610    -0.2580     4.0250 hc         1 GDT       0.052500
     72 H7A          5.2050    -1.2710     4.7500 hc         1 GDT       0.052500
     73 H8           7.5770    -2.2770     3.1360 hc         1 GDT       0.056000
     74 H8A          6.3220    -3.2900     3.8600 hc         1 GDT       0.056000
     75 H9           8.1960    -1.4390     5.3790 hc         1 GDT       0.054000
     76 H9A          6.9400    -2.4530     6.1040 hc         1 GDT       0.054000
     77 H10          9.3130    -3.4570     4.4890 hc         1 GDT       0.052000
     78 H10A         8.0570    -4.4720     5.2130 hc         1 GDT       0.052000
     79 H11          8.6740    -3.6260     7.4570 hc         1 GDT       0.039667
     80 H11A        10.0570    -4.3880     6.6600 hc         1 GDT       0.039667
     81 H11B         9.9380    -2.6250     6.7290 hc         1 GDT       0.039667
@<TRIPOS>BOND
     1     1     2 1   
     2     1     8 1   
     3     1    38 1   
     4     2     3 1   
     5     2    39 1   
     6     2    40 1   
     7     3     4 1   
     8     3    39 1   
     9     3    40 1   
    10     4     5 1   
    11     4    41 1   
    12     5     6 1   
    13     5    41 1   
    14     5    42 1   
    15     5    43 1   
    16     6    33 1   
    17     6    44 1   
    18     6    45 1   
    19     7     8 1   
    20     8     9 1   
    21     8    38 1   
    22     9    10 1   
    23     9    46 1   
    24    10    11 1   
    25    10    14 1   
    26    10    47 1   
    27    11    12 1   
    28    11    13 1   
    29    11    48 1   
    30    12    49 1   
    31    12    50 1   
    32    12    51 1   
    33    13    52 1   
    34    14    15 1   
    35    14    16 1   
    36    16    17 1   
    37    16    53 1   
    38    17    18 1   
    39    17    32 1   
    40    17    54 1   
    41    18    19 1   
    42    18    20 1   
    43    20    21 1   
    44    20    55 1   
    45    21    22 1   
    46    21    23 1   
    47    21    56 1   
    48    21    60 1   
    49    22    57 1   
    50    22    58 1   
    51    22    59 1   
    52    23    24 1   
    53    23    60 1   
    54    24    25 1   
    55    24    61 1   
    56    25    26 1   
    57    25    27 1   
    58    25    61 1   
    59    27    28 1   
    60    27    62 1   
    61    28    29 1   
    62    28    63 1   
    63    28    64 1   
    64    29    30 1   
    65    29    65 1   
    66    29    66 1   
    67    30    31 1   
    68    30    32 1   
    69    30    67 1   
    70    31    68 1   
    71    32    69 1   
    72    32    70 1   
    73    33    34 1   
    74    33    71 1   
    75    33    72 1   
    76    34    35 1   
    77    34    73 1   
    78    34    74 1   
    79    35    36 1   
    80    35    75 1   
    81    35    76 1   
    82    36    37 1   
    83    36    77 1   
    84    36    78 1   
    85    37    79 1   
    86    37    80 1   
    87    37    81 1   
@<TRIPOS>SUBSTRUCTURE
     1 GDT         1 TEMP              0 ****  ****    0 ROOT
