@<TRIPOS>MOLECULE
molecule
   81    81     1     0     0
SMALL
bcc


@<TRIPOS>ATOM
      1 C1           0.0000     0.0000     0.0000 ce         1 GDT      -0.251200
      2 C2           1.3520     0.0000     0.0000 cf         1 GDT      -0.045000
      3 C3           2.0830     0.0000     1.2680 cf         1 GDT      -0.170000
      4 C4           3.4170    -0.0010     1.2690 c2         1 GDT      -0.133200
      5 C5           4.1700    -0.0000     2.5740 c3         1 GDT      -0.054200
      6 C6           5.1410    -1.1830     2.6030 c3         1 GDT      -0.078400
      7 O37         -0.1220     0.0000    -2.3210 o          1 GDT      -0.641100
      8 C12         -0.7310     0.0000    -1.2670 c          1 GDT       0.668300
      9 N13         -2.0790     0.0010    -1.2670 ns         1 GDT      -0.553900
     10 C14         -2.8100     0.0010    -2.5370 c3         1 GDT       0.059700
     11 C34         -2.9570    -1.4360    -3.0410 c3         1 GDT       0.131100
     12 C36         -1.5700    -2.0520    -3.2340 c3         1 GDT      -0.125100
     13 O35         -3.6900    -2.2040    -2.0850 oh         1 GDT      -0.602800
     14 C15         -4.1760     0.6020    -2.3290 c          1 GDT       0.675100
     15 O33         -4.5950     0.7840    -1.2050 o          1 GDT      -0.614100
     16 N16         -4.9340     0.9370    -3.3920 ns         1 GDT      -0.551900
     17 C17         -6.3030     1.4210    -3.1920 c3         1 GDT       0.046700
     18 C31         -7.2430     0.6560    -4.0830 c          1 GDT       0.644100
     19 O32         -8.3930     1.0220    -4.2070 o          1 GDT      -0.597100
     20 N30         -6.8080    -0.4430    -4.7480 ns         1 GDT      -0.592900
     21 C28         -7.6540    -0.9330    -5.8580 c3         1 GDT       0.128900
     22 C29         -9.1300    -0.7000    -5.5270 c3         1 GDT      -0.088100
     23 C27         -7.2760    -0.1530    -7.0980 c2         1 GDT      -0.102200
     24 C26         -7.0500     1.1500    -6.9900 ce         1 GDT      -0.253200
     25 C24         -6.6540     1.9640    -8.1480 c          1 GDT       0.666300
     26 O25         -6.6780     1.5010    -9.2710 o          1 GDT      -0.600100
     27 N23         -6.2600     3.2480    -7.9320 ns         1 GDT      -0.584900
     28 C22         -6.1930     3.7220    -6.5360 c3         1 GDT       0.099000
     29 C21         -5.1930     2.8610    -5.7620 c3         1 GDT      -0.140400
     30 C19         -5.1180     3.3260    -4.3090 c3         1 GDT       0.147100
     31 O20         -3.9750     2.7400    -3.6840 oh         1 GDT      -0.596800
     32 C18         -6.3790     2.9080    -3.5540 c3         1 GDT      -0.096400
     33 C7           5.9060    -1.1830     3.9280 c3         1 GDT      -0.082400
     34 C8           6.8760    -2.3650     3.9570 c3         1 GDT      -0.081400
     35 C9           7.6410    -2.3640     5.2820 c3         1 GDT      -0.081400
     36 C10          8.6120    -3.5460     5.3100 c3         1 GDT      -0.084400
     37 C11          9.3760    -3.5460     6.6360 c3         1 GDT      -0.092100
     38 H1          -0.5420     0.0000     0.9380 ha         1 GDT       0.133000
     39 H2           1.8940     0.0000    -0.9380 ha         1 GDT       0.152000
     40 H3           1.5400     0.0010     2.2060 ha         1 GDT       0.132000
     41 H4           3.9590    -0.0010     0.3310 ha         1 GDT       0.130000
     42 H5           3.4690    -0.0890     3.3950 hc         1 GDT       0.051200
     43 H5A          4.7240     0.9250     2.6710 hc         1 GDT       0.051200
     44 H6           4.5870    -2.1080     2.5060 hc         1 GDT       0.045200
     45 H6A          5.8420    -1.0940     1.7820 hc         1 GDT       0.045200
     46 HN13        -2.5800     0.0090    -0.4010 hn         1 GDT       0.345500
     47 H14         -2.2660     0.5860    -3.2680 h1         1 GDT       0.101700
     48 H34         -3.4870    -1.4350    -3.9860 h1         1 GDT       0.022700
     49 H36         -1.6560    -2.9580    -3.8220 hc         1 GDT       0.054033
     50 H36A        -1.1410    -2.2880    -2.2680 hc         1 GDT       0.054033
     51 H36B        -0.9300    -1.3470    -3.7510 hc         1 GDT       0.054033
     52 HO35        -3.9590    -3.0190    -2.4760 ho         1 GDT       0.402000
     53 HN16        -4.5810     0.8060    -4.3190 hn         1 GDT       0.330500
     54 H17         -6.5900     1.2840    -2.1560 h1         1 GDT       0.123700
     55 HN30        -6.1400    -1.0550    -4.3210 hn         1 GDT       0.324500
     56 H28         -7.4750    -1.9890    -6.0190 h1         1 GDT       0.062700
     57 H29         -9.2950    -0.8730    -4.4700 hc         1 GDT       0.052367
     58 H29A        -9.3990     0.3200    -5.7720 hc         1 GDT       0.052367
     59 H29B        -9.7420    -1.3830    -6.1040 hc         1 GDT       0.052367
     60 H27         -7.1710    -0.6510    -8.0540 ha         1 GDT       0.156000
     61 H26         -7.1420     1.6260    -6.0200 ha         1 GDT       0.145000
     62 HN23        -6.2700     3.9070    -8.6850 hn         1 GDT       0.328500
     63 H22         -7.1710     3.6400    -6.0780 h1         1 GDT       0.048200
     64 H22A        -5.8700     4.7560    -6.5200 h1         1 GDT       0.048200
     65 H21         -4.2150     2.9500    -6.2190 hc         1 GDT       0.067700
     66 H21A        -5.5110     1.8260    -5.7920 hc         1 GDT       0.067700
     67 H19         -5.0260     4.4050    -4.2820 h1         1 GDT       0.037700
     68 HO20        -3.3160     3.4010    -3.5510 ho         1 GDT       0.389000
     69 H18         -7.2460     3.0810    -4.1800 hc         1 GDT       0.069700
     70 H18A        -6.4670     3.4950    -2.6480 hc         1 GDT       0.069700
     71 H7           5.2050    -1.2710     4.7500 hc         1 GDT       0.041700
     72 H7A          6.4610    -0.2580     4.0250 hc         1 GDT       0.041700
     73 H8           6.3220    -3.2900     3.8600 hc         1 GDT       0.041700
     74 H8A          7.5770    -2.2770     3.1360 hc         1 GDT       0.041700
     75 H9           6.9400    -2.4530     6.1040 hc         1 GDT       0.041700
     76 H9A          8.1960    -1.4390     5.3790 hc         1 GDT       0.041700
     77 H10          8.0570    -4.4720     5.2130 hc         1 GDT       0.040200
     78 H10A         9.3130    -3.4570     4.4890 hc         1 GDT       0.040200
     79 H11         10.0640    -4.3830     6.6570 hc         1 GDT       0.032700
     80 H11A         9.9310    -2.6210     6.7330 hc         1 GDT       0.032700
     81 H11B         8.6750    -3.6350     7.4570 hc         1 GDT       0.032700
@<TRIPOS>BOND
     1     1     2 2
     2     1     8 1
     3     2     3 1
     4     3     4 2
     5     4     5 1
     6     5     6 1
     7     6    33 1
     8     7     8 2
     9     8     9 1
    10     9    10 1
    11    10    11 1
    12    10    14 1
    13    11    12 1
    14    11    13 1
    15    14    15 2
    16    14    16 1
    17    16    17 1
    18    17    18 1
    19    17    32 1
    20    18    19 2
    21    18    20 1
    22    20    21 1
    23    21    22 1
    24    21    23 1
    25    23    24 2
    26    24    25 1
    27    25    26 2
    28    25    27 1
    29    27    28 1
    30    28    29 1
    31    29    30 1
    32    30    31 1
    33    30    32 1
    34    33    34 1
    35    34    35 1
    36    35    36 1
    37    36    37 1
    38     1    38 1
    39     2    39 1
    40     3    40 1
    41     4    41 1
    42     5    42 1
    43     5    43 1
    44     6    44 1
    45     6    45 1
    46     9    46 1
    47    10    47 1
    48    11    48 1
    49    12    49 1
    50    12    50 1
    51    12    51 1
    52    13    52 1
    53    16    53 1
    54    17    54 1
    55    20    55 1
    56    21    56 1
    57    22    57 1
    58    22    58 1
    59    22    59 1
    60    23    60 1
    61    24    61 1
    62    27    62 1
    63    28    63 1
    64    28    64 1
    65    29    65 1
    66    29    66 1
    67    30    67 1
    68    31    68 1
    69    32    69 1
    70    32    70 1
    71    33    71 1
    72    33    72 1
    73    34    73 1
    74    34    74 1
    75    35    75 1
    76    35    76 1
    77    36    77 1
    78    36    78 1
    79    37    79 1
    80    37    80 1
    81    37    81 1
@<TRIPOS>SUBSTRUCTURE
     1 GDT         1 TEMP              0 ****  ****    0 ROOT
