@<TRIPOS>MOLECULE
GDV
   47    49     1     0     0
SMALL
bcc


@<TRIPOS>ATOM
      1 O1           0.0000     0.0000     0.0000 o          1 GDV      -0.553100
      2 C10          1.2260     0.0000     0.0000 c          1 GDV       0.593100
      3 C12          1.9610     0.0000     1.2980 c3         1 GDV      -0.080100
      4 N4           2.0440    -0.0010    -1.1170 ns         1 GDV      -0.266900
      5 C2           1.5410    -0.0020    -2.4680 c3         1 GDV       0.094000
      6 C3           1.3400    -1.4300    -2.9800 c3         1 GDV       0.143100
      7 O3           0.1210    -1.9460    -2.4420 oh         1 GDV      -0.532800
      8 C4           1.2370    -1.4640    -4.5120 c3         1 GDV       0.155100
      9 O4           1.1130    -2.8350    -4.8980 oh         1 GDV      -0.537800
     10 C5           2.4720    -0.8470    -5.2060 c3         1 GDV      -0.135000
     11 C6           2.2020    -0.6560    -6.7020 c3         1 GDV       0.229400
     12 O5           1.0860     0.2030    -6.8500 oh         1 GDV      -0.602800
     13 C1           2.4520     0.7960    -3.3350 cc         1 GDV      -0.388900
     14 N1           2.8690     0.4160    -4.5580 na         1 GDV       0.536900
     15 C7           3.7670     1.3650    -5.0240 cc         1 GDV      -0.183300
     16 C8           3.8200     2.3640    -4.0940 cd         1 GDV      -0.310900
     17 N2           2.9910     1.9930    -3.0710 na         1 GDV       0.496900
     18 C9           4.5760     3.5540    -4.1530 c          1 GDV       0.585700
     19 O2           5.3040     3.8670    -5.1350 o          1 GDV      -0.561100
     20 N3           4.4570     4.4420    -3.0470 ns         1 GDV      -0.027100
     21 C11          5.0520     5.7100    -2.8270 ca         1 GDV      -0.101400
     22 C17          5.8920     6.2370    -3.7930 ca         1 GDV      -0.130000
     23 C16          6.4770     7.4850    -3.5770 ca         1 GDV      -0.062000
     24 C15          6.2120     8.1860    -2.4010 ca         1 GDV      -0.093000
     25 C14          5.3630     7.6380    -1.4390 ca         1 GDV      -0.062000
     26 C13          4.7780     6.3900    -1.6540 ca         1 GDV      -0.130000
     27 H121         2.6780    -0.8130     1.3080 hc         1 GDV       0.035367
     28 H122         2.4820     0.9420     1.4180 hc         1 GDV       0.035367
     29 H123         1.2580    -0.1290     2.1120 hc         1 GDV       0.035367
     30 H4           3.0360    -0.0020    -0.9790 hn         1 GDV       0.179500
     31 H2           0.5740     0.4870    -2.4680 h1         1 GDV       0.099700
     32 H3           2.1720    -2.0470    -2.6610 h1         1 GDV       0.011700
     33 HA           0.2310    -2.8580    -2.2320 ho         1 GDV       0.415000
     34 HB           0.3510    -0.9220    -4.8180 h1         1 GDV       0.094700
     35 HC           1.8680    -3.3150    -4.6010 ho         1 GDV       0.392000
     36 H5           3.2940    -1.5450    -5.0990 h1         1 GDV       0.062700
     37 H6C1         3.0690    -0.2110    -7.1750 h1         1 GDV       0.021200
     38 H6C2         1.9880    -1.6140    -7.1590 h1         1 GDV       0.021200
     39 HD           0.9110     0.3360    -7.7670 ho         1 GDV       0.431000
     40 H7           4.3040     1.3340    -5.9640 h4         1 GDV       0.206000
     41 HE           2.8250     2.5290    -2.2420 hn         1 GDV       0.158700
     42 HF           3.8610     4.1220    -2.3090 hn         1 GDV       0.124500
     43 H17          6.0930     5.6870    -4.7040 ha         1 GDV       0.128500
     44 H16          7.1360     7.9100    -4.3240 ha         1 GDV       0.115000
     45 H15          6.6660     9.1550    -2.2340 ha         1 GDV       0.117000
     46 H14          5.1570     8.1830    -0.5250 ha         1 GDV       0.115000
     47 H13          4.1180     5.9580    -0.9110 ha         1 GDV       0.128500
@<TRIPOS>BOND
     1     1     2 2   
     2     2     3 1   
     3     2     4 1   
     4     3    27 1   
     5     3    28 1   
     6     3    29 1   
     7     4     5 1   
     8     4    30 1   
     9     5     6 1   
    10     5    13 1   
    11     5    31 1   
    12     6     7 1   
    13     6     8 1   
    14     6    32 1   
    15     7    33 1   
    16     8     9 1   
    17     8    10 1   
    18     8    34 1   
    19     9    35 1   
    20    10    11 1   
    21    10    14 1   
    22    10    36 1   
    23    11    12 1   
    24    11    37 1   
    25    11    38 1   
    26    12    39 1   
    27    13    14 2   
    28    13    17 1   
    29    14    15 1   
    30    15    16 2   
    31    15    40 1   
    32    16    17 1   
    33    16    18 1   
    34    17    41 1   
    35    18    19 2   
    36    18    20 1   
    37    20    21 1   
    38    20    42 1   
    39    21    22 ar  
    40    21    26 ar  
    41    22    23 ar  
    42    22    43 1   
    43    23    24 ar  
    44    23    44 1   
    45    24    25 ar  
    46    24    45 1   
    47    25    26 ar  
    48    25    46 1   
    49    26    47 1   
@<TRIPOS>SUBSTRUCTURE
     1 GDV         1 TEMP              0 ****  ****    0 ROOT
