@<TRIPOS>MOLECULE
molecule
   25    25     1     0     0
SMALL
bcc


@<TRIPOS>ATOM
      1 C5           0.0000     0.0000     0.0000 c3         1 GE2       0.117000
      2 C            1.5300     0.0000     0.0000 c3         1 GE2      -0.136400
      3 C1           2.0410     0.0000     1.4410 c3         1 GE2       0.117000
      4 N1           3.5090    -0.0010     1.4400 nz         1 GE2      -0.806600
      5 C2           1.5310     1.2480     2.1630 c3         1 GE2      -0.132400
      6 C3           0.0010     1.2480     2.1640 c3         1 GE2       0.180100
      7 O32         -0.4740     2.4140     2.8390 oh         1 GE2      -0.555800
      8 C4          -0.5090     1.2480     0.7230 c3         1 GE2      -0.132400
      9 N6          -0.4910     0.0010    -1.3840 nz         1 GE2      -0.806600
     10 H5          -0.3590    -0.8840     0.5140 hx         1 GE2       0.127700
     11 H1A          1.8890    -0.8860    -0.5090 hc         1 GE2       0.085700
     12 H2           1.8890     0.8860    -0.5090 hc         1 GE2       0.085700
     13 H1           1.6750    -0.8830     1.9500 hx         1 GE2       0.127700
     14 HN11         3.8440     0.8160     0.9690 hn         1 GE2       0.470967
     15 HN12         3.8430    -0.0020     2.3840 hn         1 GE2       0.470967
     16 H21          1.8910     1.2450     3.1840 hc         1 GE2       0.099700
     17 H22          1.8900     2.1320     1.6500 hc         1 GE2       0.099700
     18 H3          -0.3570     0.3610     2.6710 h1         1 GE2       0.057700
     19 HOW         -0.9980     2.1560     3.5790 ho         1 GE2       0.447000
     20 H41         -0.1460     2.1320     0.2130 hc         1 GE2       0.099700
     21 H42         -1.5920     1.2450     0.7250 hc         1 GE2       0.099700
     22 HN61        -0.1580    -0.8160    -1.8560 hn         1 GE2       0.470967
     23 HN62        -1.4920     0.0000    -1.3820 hn         1 GE2       0.470967
     24 H13          3.8420    -0.8190     0.9680 hn         1 GE2       0.470967
     25 H63         -0.1420     0.8080    -1.8610 hn         1 GE2       0.470967
@<TRIPOS>BOND
     1     1     2 1
     2     1     8 1
     3     1     9 1
     4     1    10 1
     5     2     3 1
     6     2    11 1
     7     2    12 1
     8     3     4 1
     9     3     5 1
    10     3    13 1
    11     4    14 1
    12     4    15 1
    13     5     6 1
    14     5    16 1
    15     5    17 1
    16     6     7 1
    17     6     8 1
    18     6    18 1
    19     7    19 1
    20     8    20 1
    21     8    21 1
    22     9    22 1
    23     9    23 1
    24    24     4 1
    25    25     9 1
@<TRIPOS>SUBSTRUCTURE
     1 GE2         1 TEMP              0 ****  ****    0 ROOT
