@<TRIPOS>MOLECULE
GE3
   27    27     1     0     0
SMALL
bcc


@<TRIPOS>ATOM
      1 C            0.0000     0.0000     0.0000 c3         1 GE3       0.169400
      2 C1           1.5310     0.0000     0.0000 c3         1 GE3       0.124800
      3 O11          2.0090    -1.1690    -0.6660 oh         1 GE3      -0.564800
      4 C2           2.0290     0.0000     1.4480 c3         1 GE3       0.112500
      5 C3           1.3750    -1.1650     2.1970 c3         1 GE3       0.161100
      6 C4          -0.1440    -1.0740     2.0300 c3         1 GE3       0.361900
      7 O4          -0.6030     0.1770     2.5440 oh         1 GE3      -0.598800
      8 O3          -0.4860    -1.1730     0.6490 os         1 GE3      -0.392600
      9 OH           1.7090    -1.0930     3.5840 oh         1 GE3      -0.575800
     10 N1           3.4890    -0.1600     1.4680 n7         1 GE3      -0.563200
     11 C31          3.9740     0.5330     2.6690 c3         1 GE3       0.159100
     12 C41          2.0420     1.2480    -0.7230 c3         1 GE3      -0.039100
     13 H1          -0.3580     0.0180    -1.0220 h1         1 GE3       0.026700
     14 H2A         -0.3580     0.8760     0.5280 h1         1 GE3       0.026700
     15 HOB          1.8690    -1.0810    -1.5940 ho         1 GE3       0.389000
     16 H2           1.7550     0.9340     1.9240 h1         1 GE3       0.048700
     17 H3           1.7270    -2.1020     1.7830 h1         1 GE3       0.042700
     18 H4          -0.6130    -1.8860     2.5740 h2         1 GE3       0.011700
     19 HO4         -1.3760     0.0370     3.0660 ho         1 GE3       0.397000
     20 HOH          1.6680    -1.9560     3.9620 ho         1 GE3       0.387000
     21 HN1          3.8830     0.2680     0.6540 hn         1 GE3       0.256800
     22 H311         3.7850    -0.0810     3.5410 h1         1 GE3       0.004033
     23 H312         3.4570     1.4790     2.7740 h1         1 GE3       0.004033
     24 H313         5.0390     0.7110     2.5770 h1         1 GE3       0.004033
     25 H411         1.9530     2.1060    -0.0670 hc         1 GE3       0.015700
     26 H412         1.4520     1.4140    -1.6160 hc         1 GE3       0.015700
     27 H413         3.0800     1.1080    -0.9960 hc         1 GE3       0.015700
@<TRIPOS>BOND
     1     1     2 1   
     2     1     8 1   
     3     1    13 1   
     4     1    14 1   
     5     2     3 1   
     6     2     4 1   
     7     2    12 1   
     8     3    15 1   
     9     4     5 1   
    10     4    10 1   
    11     4    16 1   
    12     5     6 1   
    13     5     9 1   
    14     5    17 1   
    15     6     7 1   
    16     6     8 1   
    17     6    18 1   
    18     7    19 1   
    19     9    20 1   
    20    10    11 1   
    21    10    21 1   
    22    11    22 1   
    23    11    23 1   
    24    11    24 1   
    25    12    25 1   
    26    12    26 1   
    27    12    27 1   
@<TRIPOS>SUBSTRUCTURE
     1 GE3         1 TEMP              0 ****  ****    0 ROOT
