@<TRIPOS>MOLECULE
GEB
   32    32     1     0     0
SMALL
bcc


@<TRIPOS>ATOM
      1 C32          0.0000     0.0000     0.0000 c          1 GEB       0.653900
      2 C33          1.5070     0.0000     0.0000 c3         1 GEB      -0.166900
      3 C34          2.0170     0.0000     1.4420 c3         1 GEB       0.158300
      4 C35          4.0120    -1.2550     0.8880 c3         1 GEB       0.129800
      5 C36          3.6160    -2.4190     1.7990 c3         1 GEB       0.129800
      6 C37          3.8460    -3.3140     4.0370 c3         1 GEB       0.158300
      7 C38          4.6160    -4.5490     3.5620 c3         1 GEB      -0.166900
      8 C39          4.3120    -5.7110     4.4720 c          1 GEB       0.653900
      9 C43          3.6160    -0.9260     3.7050 c3         1 GEB       0.129800
     10 C44          4.0130     0.2380     2.7930 c3         1 GEB       0.129800
     11 N16          3.4870    -0.0000     1.4410 n3         1 GEB      -0.535100
     12 N17          4.1420    -2.1810     3.1500 n3         1 GEB      -0.535100
     13 O6          -0.6040     0.8570    -0.5990 o          1 GEB      -0.550600
     14 O7           3.8920    -6.7450     4.0110 o          1 GEB      -0.550600
     15 H1          -0.5410    -0.7870     0.5110 h4         1 GEB      -0.043300
     16 H2           1.8680    -0.8840    -0.5110 hc         1 GEB       0.047200
     17 H3           1.8680     0.8850    -0.5110 hc         1 GEB       0.047200
     18 H4           1.6560     0.8850     1.9530 h1         1 GEB       0.012700
     19 H5           1.6560    -0.8840     1.9530 h1         1 GEB       0.012700
     20 H6           5.0920    -1.1970     0.8270 h1         1 GEB       0.025950
     21 H7           3.5980    -1.4140    -0.1000 h1         1 GEB       0.025950
     22 H8           2.5360    -2.4910     1.8410 h1         1 GEB       0.025950
     23 H9           4.0300    -3.3400     1.4080 h1         1 GEB       0.025950
     24 H10          4.1460    -3.0690     5.0490 h1         1 GEB       0.012700
     25 H11          2.7830    -3.5210     4.0160 h1         1 GEB       0.012700
     26 H12          5.6790    -4.3430     3.5830 hc         1 GEB       0.047200
     27 H13          4.3150    -4.7950     2.5500 hc         1 GEB       0.047200
     28 H14          4.5000    -5.6300     5.5350 h4         1 GEB      -0.043300
     29 H15          4.0310    -0.7670     4.6930 h1         1 GEB       0.025950
     30 H16          2.5360    -0.9840     3.7650 h1         1 GEB       0.025950
     31 H17          5.0930     0.3110     2.7510 h1         1 GEB       0.025950
     32 H18          3.5980     1.1590     3.1840 h1         1 GEB       0.025950
@<TRIPOS>BOND
     1     1     2 1   
     2     1    13 2   
     3     1    15 1   
     4     2     3 1   
     5     2    16 1   
     6     2    17 1   
     7     3    11 1   
     8     3    18 1   
     9     3    19 1   
    10     4     5 1   
    11     4    11 1   
    12     4    20 1   
    13     4    21 1   
    14     5    12 1   
    15     5    22 1   
    16     5    23 1   
    17     6     7 1   
    18     6    12 1   
    19     6    24 1   
    20     6    25 1   
    21     7     8 1   
    22     7    26 1   
    23     7    27 1   
    24     8    14 2   
    25     8    28 1   
    26     9    10 1   
    27     9    12 1   
    28     9    29 1   
    29     9    30 1   
    30    10    11 1   
    31    10    31 1   
    32    10    32 1   
@<TRIPOS>SUBSTRUCTURE
     1 GEB         1 TEMP              0 ****  ****    0 ROOT
