@<TRIPOS>MOLECULE
molecule
   32    32     1     0     0
SMALL
bcc


@<TRIPOS>ATOM
      1 C32          0.0000     0.0000     0.0000 c          1 GEB       0.566400
      2 C33          1.5070     0.0000     0.0000 c3         1 GEB      -0.204900
      3 C34          2.0170     0.0000     1.4420 c3         1 GEB       0.164300
      4 C35          4.0120    -1.2550     0.8880 c3         1 GEB       0.140050
      5 C36          3.6160    -2.4190     1.7990 c3         1 GEB       0.140050
      6 C37          3.8460    -3.3140     4.0370 c3         1 GEB       0.164300
      7 C38          4.6160    -4.5490     3.5620 c3         1 GEB      -0.204900
      8 C39          4.3120    -5.7110     4.4720 c          1 GEB       0.566400
      9 C43          3.6160    -0.9260     3.7050 c3         1 GEB       0.140050
     10 C44          4.0130     0.2380     2.7930 c3         1 GEB       0.140050
     11 N16          3.4870    -0.0000     1.4410 n3         1 GEB      -0.721100
     12 N17          4.1420    -2.1810     3.1500 n3         1 GEB      -0.721100
     13 O6          -0.6040     0.8570    -0.5990 o          1 GEB      -0.516600
     14 O7           3.8920    -6.7450     4.0110 o          1 GEB      -0.516600
     15 H1          -0.5410    -0.7870     0.5110 h4         1 GEB      -0.006800
     16 H2           1.8680    -0.8840    -0.5110 hc         1 GEB       0.076450
     17 H3           1.8680     0.8850    -0.5110 hc         1 GEB       0.076450
     18 H4           1.6560     0.8850     1.9530 h1         1 GEB       0.037950
     19 H5           1.6560    -0.8840     1.9530 h1         1 GEB       0.037950
     20 H6           5.0920    -1.1970     0.8270 h1         1 GEB       0.052575
     21 H7           3.5980    -1.4140    -0.1000 h1         1 GEB       0.052575
     22 H8           2.5360    -2.4910     1.8410 h1         1 GEB       0.052575
     23 H9           4.0300    -3.3400     1.4080 h1         1 GEB       0.052575
     24 H10          4.1460    -3.0690     5.0490 h1         1 GEB       0.037950
     25 H11          2.7830    -3.5210     4.0160 h1         1 GEB       0.037950
     26 H12          5.6790    -4.3430     3.5830 hc         1 GEB       0.076450
     27 H13          4.3150    -4.7950     2.5500 hc         1 GEB       0.076450
     28 H14          4.5000    -5.6300     5.5350 h4         1 GEB      -0.006800
     29 H15          4.0310    -0.7670     4.6930 h1         1 GEB       0.052575
     30 H16          2.5360    -0.9840     3.7650 h1         1 GEB       0.052575
     31 H17          5.0930     0.3110     2.7510 h1         1 GEB       0.052575
     32 H18          3.5980     1.1590     3.1840 h1         1 GEB       0.052575
@<TRIPOS>BOND
     1     6     7 1
     2     6    12 1
     3     7     8 1
     4    12     9 1
     5    12     5 1
     6     8    14 2
     7     9    10 1
     8     5     4 1
     9    10    11 1
    10    11     4 1
    11    11     3 1
    12     2     3 1
    13     2     1 1
    14     1    13 2
    15     1    15 1
    16     2    16 1
    17     2    17 1
    18     3    18 1
    19     3    19 1
    20     4    20 1
    21     4    21 1
    22     5    22 1
    23     5    23 1
    24     6    24 1
    25     6    25 1
    26     7    26 1
    27     7    27 1
    28     8    28 1
    29     9    29 1
    30     9    30 1
    31    10    31 1
    32    10    32 1
@<TRIPOS>SUBSTRUCTURE
     1 GEB         1 TEMP              0 ****  ****    0 ROOT
