@<TRIPOS>MOLECULE
GEG
   19    18     1     0     0
SMALL
bcc


@<TRIPOS>ATOM
      1 C1'         0.0830   -0.4280    0.0220 c         1 GEG      0.908600
      2 O1'         1.0100   -1.2860   -0.0570 o         1 GEG     -0.847800
      3 O2'        -0.2710    0.1350    1.0960 o         1 GEG     -0.847800
      4 C1         -0.6860   -0.0670   -1.2630 c3        1 GEG     -0.195400
      5 C2          0.2620    0.1910   -2.4130 c3        1 GEG     -0.050200
      6 C3         -0.4450    0.0970   -3.7410 c2        1 GEG      0.101800
      7 C4         -0.8660    1.1990   -4.4140 c2        1 GEG     -0.311200
      8 C5         -0.6580    2.5770   -3.9390 c3        1 GEG     -0.025900
      9 N3         -0.6020   -1.1960   -4.2710 nh        1 GEG     -0.819600
     10 H1C1       -1.3250    0.8320   -1.0760 hc        1 GEG      0.021200
     11 H1C2       -1.3630   -0.9270   -1.5000 hc        1 GEG      0.021200
     12 H2C1        0.7220    1.2070   -2.3050 hc        1 GEG      0.064200
     13 H2C2        1.1020   -0.5570   -2.3570 hc        1 GEG      0.064200
     14 H4         -1.3910    1.1050   -5.3760 ha        1 GEG      0.098000
     15 H5C1       -0.9570    2.6840   -2.8650 hc        1 GEG      0.024367
     16 H5C2       -1.2650    3.2960   -4.5430 hc        1 GEG      0.024367
     17 H5C3        0.4180    2.8730   -4.0270 hc        1 GEG      0.024367
     18 H3N1       -1.4140   -1.2970   -4.8400 hn        1 GEG      0.373300
     19 H3N2       -0.5470   -1.9060   -3.5690 hn        1 GEG      0.373300
@<TRIPOS>BOND
     1    1    2 1
     2    1    3 1
     3    1    4 1
     4    4    5 1
     5    4   10 1
     6    4   11 1
     7    5    6 1
     8    5   12 1
     9    5   13 1
    10    6    7 2
    11    6    9 1
    12    7    8 1
    13    7   14 1
    14    8   15 1
    15    8   16 1
    16    8   17 1
    17    9   18 1
    18    9   19 1
@<TRIPOS>SUBSTRUCTURE
     1 GEG         1 TEMP              0 ****  ****    0 ROOT
