@<TRIPOS>MOLECULE
molecule
   75    74     1     0     0
SMALL
bcc


@<TRIPOS>ATOM
      1 C1           0.0000     0.0000     0.0000 c3         1 GEL       0.118400
      2 O1          -0.4750    -1.1680     0.6740 os         1 GEL      -0.359600
      3 C11         -1.9020    -1.1120     0.6410 c3         1 GEL       0.121400
      4 C12         -2.4780    -2.3390     1.3490 c3         1 GEL      -0.078400
      5 C13         -4.0060    -2.2780     1.3140 c3         1 GEL      -0.084400
      6 C14         -4.5820    -3.5060     2.0220 c3         1 GEL      -0.079400
      7 C15         -6.1110    -3.4460     1.9880 c3         1 GEL      -0.083400
      8 C16         -6.6860    -4.6730     2.6960 c3         1 GEL      -0.081400
      9 C17         -8.2150    -4.6130     2.6600 c3         1 GEL      -0.084400
     10 C18         -8.7900    -5.8400     3.3690 c3         1 GEL      -0.092100
     11 C2           1.5290     0.0000     0.0000 c3         1 GEL       0.184100
     12 O2           2.0060     0.0000     1.3470 os         1 GEL      -0.529200
     13 P2           2.8860     1.3360     1.5280 p5         1 GEL       1.132600
     14 O1P          1.9670     2.6270     1.2470 o          1 GEL      -0.821500
     15 O2P          4.0150     1.3160     0.5720 o          1 GEL      -0.821500
     16 C22          3.5340     1.4100     3.2300 c3         1 GEL      -0.255600
     17 C23          4.3710     2.6780     3.4030 c3         1 GEL      -0.043400
     18 C24          4.9140     2.7410     4.8310 c3         1 GEL      -0.080400
     19 C25          5.7520     4.0100     5.0040 c3         1 GEL      -0.083400
     20 C26          6.2950     4.0730     6.4330 c3         1 GEL      -0.082400
     21 C27          7.1320     5.3410     6.6060 c3         1 GEL      -0.085400
     22 C28          7.6760     5.4030     8.0340 c3         1 GEL      -0.092100
     23 C3           2.0390    -1.2480    -0.7220 c3         1 GEL       0.141400
     24 O3           1.5650    -2.4150    -0.0480 os         1 GEL      -0.512200
     25 P3           2.1370    -3.6840    -0.8570 p5         1 GEL       1.252800
     26 O3P          1.5990    -3.6410    -2.3730 o          1 GEL      -0.806500
     27 O4P          3.6160    -3.6430    -0.8570 o          1 GEL      -0.806500
     28 O5P          1.6370    -5.0410    -0.1490 os         1 GEL      -0.551200
     29 C31          2.1750    -6.1250    -0.9090 c3         1 GEL       0.131400
     30 C32          1.7360    -7.4520    -0.2860 c3         1 GEL       0.087800
     31 N3           0.2690    -7.5320    -0.2880 nz         1 GEL      -0.802600
     32 H11         -0.3610     0.8840     0.5110 h1         1 GEL       0.026700
     33 H12         -0.3610     0.0000    -1.0210 h1         1 GEL       0.026700
     34 H111        -2.2400    -0.2130     1.1440 h1         1 GEL       0.014200
     35 H112        -2.2400    -1.0970    -0.3880 h1         1 GEL       0.014200
     36 H121        -2.1410    -2.3540     2.3780 hc         1 GEL       0.044200
     37 H122        -2.1420    -3.2370     0.8450 hc         1 GEL       0.044200
     38 H131        -4.3430    -1.3800     1.8180 hc         1 GEL       0.040700
     39 H132        -4.3440    -2.2630     0.2850 hc         1 GEL       0.040700
     40 H141        -4.2450    -3.5210     3.0510 hc         1 GEL       0.034200
     41 H142        -4.2450    -4.4040     1.5190 hc         1 GEL       0.034200
     42 H151        -6.4490    -3.4320     0.9590 hc         1 GEL       0.042200
     43 H152        -6.4480    -2.5480     2.4910 hc         1 GEL       0.042200
     44 H161        -6.3490    -5.5720     2.1940 hc         1 GEL       0.036700
     45 H162        -6.3500    -4.6870     3.7260 hc         1 GEL       0.036700
     46 H171        -8.5520    -4.5990     1.6310 hc         1 GEL       0.040700
     47 H172        -8.5530    -3.7140     3.1630 hc         1 GEL       0.040700
     48 H181        -8.4580    -6.7380     2.8620 hc         1 GEL       0.029367
     49 H182        -9.8720    -5.7940     3.3510 hc         1 GEL       0.029367
     50 H183        -8.4460    -5.8580     4.3960 hc         1 GEL       0.029367
     51 H2           1.8890     0.8850    -0.5110 h1         1 GEL       0.088700
     52 H221         4.1530     0.5400     3.4190 hc         1 GEL       0.040200
     53 H222         2.7080     1.4240     3.9310 hc         1 GEL       0.040200
     54 H231         3.7530     3.5470     3.2140 hc         1 GEL       0.055700
     55 H232         5.1980     2.6630     2.7030 hc         1 GEL       0.055700
     56 H241         5.5330     1.8720     5.0210 hc         1 GEL       0.027700
     57 H242         4.0880     2.7550     5.5320 hc         1 GEL       0.027700
     58 H251         5.1330     4.8790     4.8150 hc         1 GEL       0.040200
     59 H252         6.5780     3.9960     4.3040 hc         1 GEL       0.040200
     60 H261         6.9130     3.2030     6.6220 hc         1 GEL       0.034700
     61 H262         5.4690     4.0870     7.1330 hc         1 GEL       0.034700
     62 H271         6.5140     6.2100     6.4170 hc         1 GEL       0.038700
     63 H272         7.9580     5.3270     5.9050 hc         1 GEL       0.038700
     64 H281         6.8520     5.3650     8.7360 hc         1 GEL       0.025700
     65 H282         8.3360     4.5610     8.2060 hc         1 GEL       0.025700
     66 H283         8.2260     6.3260     8.1720 hc         1 GEL       0.025700
     67 H31          3.1230    -1.2470    -0.7220 h1         1 GEL       0.062700
     68 H32          1.6780    -1.2480    -1.7430 h1         1 GEL       0.062700
     69 H311         3.2570    -6.0660    -0.9060 h1         1 GEL       0.097200
     70 H312         1.8130    -6.0670    -1.9280 h1         1 GEL       0.097200
     71 H321         2.0990    -7.5100     0.7330 hx         1 GEL       0.094700
     72 H322         2.1430    -8.2740    -0.8620 hx         1 GEL       0.094700
     73 HN31        -0.0970    -6.9770     0.4600 hn         1 GEL       0.450467
     74 HN32        -0.0140    -8.4850    -0.1660 hn         1 GEL       0.450467
     75 H33         -0.0830    -7.1890    -1.1600 hn         1 GEL       0.450467
@<TRIPOS>BOND
     1     1     2 1
     2     1    11 1
     3     1    32 1
     4     1    33 1
     5     2     3 1
     6     3     4 1
     7     3    34 1
     8     3    35 1
     9     4     5 1
    10     4    36 1
    11     4    37 1
    12     5     6 1
    13     5    38 1
    14     5    39 1
    15     6     7 1
    16     6    40 1
    17     6    41 1
    18     7     8 1
    19     7    42 1
    20     7    43 1
    21     8     9 1
    22     8    44 1
    23     8    45 1
    24     9    10 1
    25     9    46 1
    26     9    47 1
    27    10    48 1
    28    10    49 1
    29    10    50 1
    30    11    12 1
    31    11    23 1
    32    11    51 1
    33    12    13 1
    34    13    14 1
    35    13    15 1
    36    13    16 1
    37    16    17 1
    38    16    52 1
    39    16    53 1
    40    17    18 1
    41    17    54 1
    42    17    55 1
    43    18    19 1
    44    18    56 1
    45    18    57 1
    46    19    20 1
    47    19    58 1
    48    19    59 1
    49    20    21 1
    50    20    60 1
    51    20    61 1
    52    21    22 1
    53    21    62 1
    54    21    63 1
    55    22    64 1
    56    22    65 1
    57    22    66 1
    58    23    24 1
    59    23    67 1
    60    23    68 1
    61    24    25 1
    62    25    26 1
    63    25    27 1
    64    25    28 1
    65    28    29 1
    66    29    30 1
    67    29    69 1
    68    29    70 1
    69    30    31 1
    70    30    71 1
    71    30    72 1
    72    31    73 1
    73    31    74 1
    74    75    31 1
@<TRIPOS>SUBSTRUCTURE
     1 GEL         1 TEMP              0 ****  ****    0 ROOT
