@<TRIPOS>MOLECULE
GEM
   27    26     1     0     0
SMALL
bcc


@<TRIPOS>ATOM
      1 C8           1.8120     0.0000     0.0000 c3         1 GEM       0.036400
      2 S7           0.0000     0.0000     0.0000 ss         1 GEM      -0.347200
      3 C6          -0.3160    -1.5460     0.8920 c3         1 GEM       0.016700
      4 C5          -1.8240    -1.7640     1.0180 c3         1 GEM       0.172800
      5 N3          -2.0810    -3.0130     1.7390 nu         1 GEM      -0.452200
      6 C1          -3.3720    -3.4190     1.9740 c2         1 GEM       0.236100
      7 N4          -3.6120    -4.5920     2.6510 nz         1 GEM       0.192400
      8 N2          -4.3700    -2.6950     1.5550 n2         1 GEM      -0.703100
      9 C9           2.3140     0.0000     1.4210 c          1 GEM       0.965600
     10 O14          1.9920     1.0060     2.2470 o          1 GEM      -0.899300
     11 O15          3.0100    -0.9060     1.8160 o          1 GEM      -0.899300
     12 C10          2.3240     1.2480    -0.7210 c3         1 GEM      -0.106400
     13 C11          1.8220     1.2490    -2.1410 c          1 GEM       0.969600
     14 O12          2.1480     2.2550    -2.9680 o          1 GEM      -0.908300
     15 O13          1.1270     0.3430    -2.5370 o          1 GEM      -0.908300
     16 HC8          2.1730    -0.8850    -0.5100 h1         1 GEM       0.044700
     17 HC61         0.1240    -2.3730     0.3480 h1         1 GEM       0.049200
     18 HC62         0.1240    -1.4880     1.8800 h1         1 GEM       0.049200
     19 HC51        -2.2640    -1.8220     0.0300 h1         1 GEM       0.042200
     20 HC52        -2.2650    -0.9370     1.5610 h1         1 GEM       0.042200
     21 HN3         -1.3150    -3.5710     2.0610 hn         1 GEM       0.303800
     22 HN41        -3.2050    -4.5400     3.5630 hn         1 GEM       0.212133
     23 HN42        -3.2070    -5.3560     2.1470 hn         1 GEM       0.212133
     24 HN21        -4.1980    -1.8410     1.0620 hn         1 GEM       0.399400
     25 H101         1.9650     2.1340    -0.2110 hc         1 GEM       0.033700
     26 H102         3.4080     1.2470    -0.7210 hc         1 GEM       0.033700
     27 H43         -4.6000    -4.7330     2.7340 hn         1 GEM       0.212133
@<TRIPOS>BOND
     1     1     2 1   
     2     1     9 1   
     3     1    12 1   
     4     1    16 1   
     5     2     3 1   
     6     3     4 1   
     7     3    17 1   
     8     3    18 1   
     9     4     5 1   
    10     4    19 1   
    11     4    20 1   
    12     5     6 1   
    13     5    21 1   
    14     6     7 1   
    15     6     8 2   
    16     7    22 1   
    17     7    23 1   
    18     7    27 1   
    19     8    24 1   
    20     9    10 1   
    21     9    11 1   
    22    12    13 1   
    23    12    25 1   
    24    12    26 1   
    25    13    14 1   
    26    13    15 1   
@<TRIPOS>SUBSTRUCTURE
     1 GEM         1 TEMP              0 ****  ****    0 ROOT
