@<TRIPOS>MOLECULE
GEN
   30    32     1     0     0
SMALL
bcc


@<TRIPOS>ATOM
      1 C1         -0.1170   -0.1580   -0.0290 ca        1 GEN     -0.229000
      2 C2          1.2740   -0.3140   -0.0580 ca        1 GEN      0.216100
      3 O2          1.8340   -0.5320   -1.2910 oh        1 GEN     -0.484100
      4 C3          2.0460   -0.2510    1.1120 ca        1 GEN     -0.348000
      5 C4          1.4070   -0.0240    2.3380 ca        1 GEN      0.247100
      6 O4          2.1070    0.0470    3.5090 oh        1 GEN     -0.447100
      7 C5          0.0030    0.1410    2.4190 ca        1 GEN     -0.278600
      8 C6         -0.6800    0.3870    3.6960 c         1 GEN      0.603900
      9 O6         -0.0730    0.5150    4.7660 o         1 GEN     -0.522100
     10 C7         -2.1520    0.4730    3.5840 cc        1 GEN     -0.188400
     11 C8         -2.7480    0.3940    2.3700 cd        1 GEN      0.067100
     12 O9         -2.0970    0.2110    1.1730 os        1 GEN     -0.216200
     13 C10        -0.7210    0.0660    1.2150 ca        1 GEN      0.202100
     14 C11        -2.9670    0.6400    4.7830 ca        1 GEN     -0.076800
     15 C12        -4.1950   -0.0340    4.8950 ca        1 GEN     -0.074000
     16 C13        -4.9990    0.1250    6.0160 ca        1 GEN     -0.188000
     17 C14        -4.5670    0.9720    7.0510 ca        1 GEN      0.130100
     18 O14        -5.4050    1.0950    8.1340 oh        1 GEN     -0.497100
     19 C15        -3.3410    1.6450    6.9600 ca        1 GEN     -0.188000
     20 C16        -2.5480    1.4740    5.8300 ca        1 GEN     -0.074000
     21 H1         -0.7140   -0.2090   -0.9490 ha        1 GEN      0.175000
     22 H2          2.7920   -0.6240   -1.1780 ho        1 GEN      0.427000
     23 H3          3.1350   -0.3780    1.0680 ha        1 GEN      0.143000
     24 H4          3.0470   -0.0870    3.3100 ho        1 GEN      0.421000
     25 H8         -3.8310    0.4700    2.1720 h4        1 GEN      0.184000
     26 H12        -4.5230   -0.7080    4.0890 ha        1 GEN      0.144000
     27 H13        -5.9590   -0.4010    6.1100 ha        1 GEN      0.143000
     28 H14        -4.9780    1.6800    8.7770 ho        1 GEN      0.420000
     29 H15        -3.0050    2.2980    7.7770 ha        1 GEN      0.143000
     30 H16        -1.5730    1.9850    5.7630 ha        1 GEN      0.144000
@<TRIPOS>BOND
     1    1    2 ar
     2    1   13 ar
     3    1   21 1
     4    2    3 1
     5    2    4 ar
     6    3   22 1
     7    4    5 ar
     8    4   23 1
     9    5    6 1
    10    5    7 ar
    11    6   24 1
    12    7    8 1
    13    7   13 ar
    14    8    9 2
    15    8   10 1
    16   10   11 2
    17   10   14 1
    18   11   12 1
    19   11   25 1
    20   12   13 1
    21   14   15 ar
    22   14   20 ar
    23   15   16 ar
    24   15   26 1
    25   16   17 ar
    26   16   27 1
    27   17   18 1
    28   17   19 ar
    29   18   28 1
    30   19   20 ar
    31   19   29 1
    32   20   30 1
@<TRIPOS>SUBSTRUCTURE
     1 GEN         1 TEMP              0 ****  ****    0 ROOT
