@<TRIPOS>MOLECULE
GEO
   29    30     1     0     0
SMALL
bcc


@<TRIPOS>ATOM
      1 O5'         0.0360   -0.7680    0.2900 oh        1 GEO     -0.593800
      2 C5'         1.4470   -0.7920    0.2690 c3        1 GEO      0.115400
      3 C4'         2.0200    0.0180    1.4310 c3        1 GEO      0.106100
      4 O4'         1.6020   -0.5850    2.6700 os        1 GEO     -0.420600
      5 C1'         2.7000   -0.9980    3.4820 c3        1 GEO      0.273500
      6 N1          2.7320   -2.4390    3.6430 n         1 GEO     -0.398000
      7 C6          2.2860   -2.9850    4.8270 cc        1 GEO      0.072600
      8 C5          2.2290   -4.3360    5.0290 cd        1 GEO     -0.417600
      9 C4          2.6280   -5.2150    3.9270 cd        1 GEO      0.767500
     10 N3          3.0410   -4.7240    2.7430 nc        1 GEO     -0.722100
     11 C2          3.0950   -3.3390    2.5630 c         1 GEO      0.850900
     12 O2          3.4660   -2.8210    1.4900 o         1 GEO     -0.635500
     13 N4          2.5670   -6.5720    4.1170 nh        1 GEO     -0.927800
     14 C2'         4.0040   -0.3480    2.8470 c3        1 GEO      0.355600
     15 F1          5.1250   -1.1370    2.8560 f         1 GEO     -0.219800
     16 F2          4.4170    0.7250    3.6070 f         1 GEO     -0.219800
     17 C3'         3.5510    0.0790    1.4050 c3        1 GEO      0.093100
     18 O3'         3.9240    1.4090    1.1250 oh        1 GEO     -0.573800
     19 H5'        -0.2400   -1.1640    1.1270 ho        1 GEO      0.408000
     20 H5'1        1.7350   -0.3080   -0.7020 h1        1 GEO      0.073200
     21 H5'2        1.8260   -1.8490    0.3020 h1        1 GEO      0.073200
     22 H4'         1.5740    1.0530    1.4420 h1        1 GEO      0.101700
     23 H1'         2.5180   -0.5210    4.4940 h2        1 GEO      0.098700
     24 H6          1.9790   -2.2790    5.6240 h4        1 GEO      0.158000
     25 H5          1.8890   -4.7490    5.9850 ha        1 GEO      0.157000
     26 HN41        2.8330   -7.2000    3.3990 hn        1 GEO      0.446800
     27 HN42        2.2760   -6.9220    4.9930 hn        1 GEO      0.446800
     28 H3'         3.9900   -0.6400    0.6610 h1        1 GEO      0.109700
     29 H1          4.8860    1.4530    1.2010 ho        1 GEO      0.420000
@<TRIPOS>BOND
     1    1    2 1   
     2    1   19 1   
     3    2    3 1   
     4    2   20 1   
     5    2   21 1   
     6    3    4 1   
     7    3   17 1   
     8    3   22 1   
     9    4    5 1   
    10    5    6 1   
    11    5   14 1   
    12    5   23 1   
    13    6    7 1   
    14    6   11 1   
    15    7    8 2   
    16    7   24 1   
    17    8    9 1   
    18    8   25 1   
    19    9   10 2   
    20    9   13 1   
    21   10   11 1   
    22   11   12 2   
    23   13   26 1   
    24   13   27 1   
    25   14   15 1   
    26   14   16 1   
    27   14   17 1   
    28   17   18 1   
    29   17   28 1   
    30   18   29 1   
@<TRIPOS>SUBSTRUCTURE
     1 GEO         1 TEMP              0 ****  ****    0 ROOT
