@<TRIPOS>MOLECULE
GEP
   52    53     1     0     0
SMALL
bcc


@<TRIPOS>ATOM
      1 N1           0.0000     0.0000     0.0000 n4         1 GEP       0.058200
      2 C2           1.4670     0.0000     0.0000 c3         1 GEP      -0.014200
      3 C3           1.9820     0.0000     1.4410 c3         1 GEP      -0.042400
      4 C4           1.4690     1.2520     2.1610 c3         1 GEP      -0.037400
      5 C5          -0.0600     1.2780     2.0890 c3         1 GEP      -0.042400
      6 C6          -0.4980     1.2310     0.6250 c3         1 GEP      -0.014200
      7 C7          -0.4870    -1.1630     0.7550 c3         1 GEP      -0.014900
      8 C8          -0.4870    -0.0780    -1.3830 c3         1 GEP      -0.022200
      9 C9           0.0290    -1.3630    -2.0340 c3         1 GEP       0.033900
     10 C10         -0.4710    -1.4420    -3.4540 ca         1 GEP      -0.184300
     11 C11          0.2770    -0.8960    -4.4800 ca         1 GEP      -0.068000
     12 C12         -0.1770    -0.9670    -5.7820 ca         1 GEP      -0.115000
     13 C13         -1.3870    -1.5890    -6.0610 ca         1 GEP      -0.026400
     14 C14         -2.1360    -2.1370    -5.0280 ca         1 GEP      -0.115000
     15 C15         -1.6740    -2.0660    -3.7280 ca         1 GEP      -0.068000
     16 N16         -1.8510    -1.6640    -7.3790 ns         1 GEP      -0.066100
     17 C17         -0.9750    -1.7840    -8.3950 c          1 GEP       0.560100
     18 O18          0.2080    -1.9280    -8.1630 o          1 GEP      -0.603100
     19 C19         -1.4620    -1.7400    -9.8210 c3         1 GEP      -0.101400
     20 C20         -0.2740    -1.8990   -10.7710 c3         1 GEP      -0.004400
     21 C21         -0.7690    -1.8540   -12.2180 c3         1 GEP      -0.137400
     22 C22          0.4000    -2.0110   -13.1550 c          1 GEP       0.978600
     23 O23          0.2030    -2.0020   -14.4830 o          1 GEP      -0.896300
     24 O24          1.5160    -2.1450   -12.7110 o          1 GEP      -0.896300
     25 H21          1.8270    -0.8860    -0.5090 hx         1 GEP       0.080700
     26 H22          1.8270     0.8860    -0.5100 hx         1 GEP       0.080700
     27 H31          3.0650     0.0050     1.4380 hc         1 GEP       0.050700
     28 H32          1.6200    -0.8840     1.9530 hc         1 GEP       0.050700
     29 H41          1.8680     2.1350     1.6780 hc         1 GEP       0.045200
     30 H42          1.7810     1.2260     3.1980 hc         1 GEP       0.045200
     31 H51         -0.4600     0.4190     2.6130 hc         1 GEP       0.050700
     32 H52         -0.4260     2.1900     2.5460 hc         1 GEP       0.050700
     33 H61         -1.5800     1.2480     0.5730 hx         1 GEP       0.080700
     34 H62         -0.0940     2.0890     0.1010 hx         1 GEP       0.080700
     35 H71         -0.4060    -0.9640     1.8170 hx         1 GEP       0.078367
     36 H72         -1.5240    -1.3490     0.5010 hx         1 GEP       0.078367
     37 H73          0.1080    -2.0320     0.5030 hx         1 GEP       0.078367
     38 H81         -0.1290     0.7790    -1.9410 hx         1 GEP       0.079700
     39 H82         -1.5710    -0.0830    -1.3850 hx         1 GEP       0.079700
     40 H91          1.1120    -1.3580    -2.0320 hc         1 GEP       0.031700
     41 H92         -0.3290    -2.2190    -1.4760 hc         1 GEP       0.031700
     42 H11          1.2260    -0.4200    -4.2630 ha         1 GEP       0.096500
     43 H12          0.3740    -0.4760    -6.5750 ha         1 GEP       0.135000
     44 H14         -3.1030    -2.5800    -5.2360 ha         1 GEP       0.135000
     45 H15         -2.2450    -2.5170    -2.9250 ha         1 GEP       0.096500
     46 HN6         -2.8320    -1.6020    -7.5690 hn         1 GEP       0.175500
     47 H191        -2.1670    -2.5460    -9.9860 hc         1 GEP       0.024700
     48 H192        -1.9490    -0.7910   -10.0070 hc         1 GEP       0.024700
     49 H201         0.2130    -2.8490   -10.5860 hc         1 GEP       0.036700
     50 H202         0.4310    -1.0940   -10.6060 hc         1 GEP       0.036700
     51 H211        -1.2560    -0.9050   -12.4040 hc         1 GEP       0.002700
     52 H212        -1.4740    -2.6600   -12.3830 hc         1 GEP       0.002700
@<TRIPOS>BOND
     1     1     2 1   
     2     1     6 1   
     3     1     7 1   
     4     1     8 1   
     5     2     3 1   
     6     2    25 1   
     7     2    26 1   
     8     3     4 1   
     9     3    27 1   
    10     3    28 1   
    11     4     5 1   
    12     4    29 1   
    13     4    30 1   
    14     5     6 1   
    15     5    31 1   
    16     5    32 1   
    17     6    33 1   
    18     6    34 1   
    19     7    35 1   
    20     7    36 1   
    21     7    37 1   
    22     8     9 1   
    23     8    38 1   
    24     8    39 1   
    25     9    10 1   
    26     9    40 1   
    27     9    41 1   
    28    10    11 ar  
    29    10    15 ar  
    30    11    12 ar  
    31    11    42 1   
    32    12    13 ar  
    33    12    43 1   
    34    13    14 ar  
    35    13    16 1   
    36    14    15 ar  
    37    14    44 1   
    38    15    45 1   
    39    16    17 1   
    40    16    46 1   
    41    17    18 2   
    42    17    19 1   
    43    19    20 1   
    44    19    47 1   
    45    19    48 1   
    46    20    21 1   
    47    20    49 1   
    48    20    50 1   
    49    21    22 1   
    50    21    51 1   
    51    21    52 1   
    52    22    23 1   
    53    22    24 1   
@<TRIPOS>SUBSTRUCTURE
     1 GEP         1 TEMP              0 ****  ****    0 ROOT
