@<TRIPOS>MOLECULE
GEQ
   53    58     1     0     0
SMALL
bcc


@<TRIPOS>ATOM
      1 C1A          0.0000     0.0000     0.0000 ca         1 GEQ      -0.031000
      2 C2A          1.3920     0.0000     0.0000 ca         1 GEQ      -0.181600
      3 C3A          2.0930     0.0000     1.2120 ca         1 GEQ      -0.030000
      4 C4A          1.4260    -0.0070     2.4020 ca         1 GEQ      -0.116000
      5 C5A          0.0350    -0.0130     2.4250 ca         1 GEQ      -0.210200
      6 C6A         -0.6830    -0.0120     1.2130 ca         1 GEQ      -0.118800
      7 C7A         -2.1010    -0.0200     1.5820 cc         1 GEQ      -0.154200
      8 C8A         -2.1560    -0.0240     2.9230 cd         1 GEQ      -0.270100
      9 N9A         -0.8900    -0.0200     3.4420 na         1 GEQ       0.357600
     10 C1B          2.1290     0.0070    -1.2790 c          1 GEQ       0.620700
     11 O2B          3.1660     0.6330    -1.3790 o          1 GEQ      -0.655100
     12 N1C          1.6550    -0.6850    -2.3340 n          1 GEQ      -0.155800
     13 C2C          2.2920    -0.5830    -3.6570 c3         1 GEQ       0.039000
     14 C3C          2.5210    -2.0000    -4.1920 c3         1 GEQ       0.094800
     15 N4C          1.2480    -2.7280    -4.2170 n3         1 GEQ      -0.501600
     16 C5C          0.8250    -2.9210    -2.8250 c3         1 GEQ       0.094800
     17 C6C          0.4880    -1.5700    -2.1990 c3         1 GEQ       0.039000
     18 C1D          1.5360    -4.0620    -4.7600 c3         1 GEQ       0.249100
     19 C1E          0.2480    -4.8000    -5.0340 ca         1 GEQ      -0.115800
     20 C2E         -0.8170    -4.5270    -5.8670 ca         1 GEQ      -0.074000
     21 C3E         -1.8920    -5.3950    -5.9220 ca         1 GEQ      -0.098000
     22 C4E         -1.9030    -6.5380    -5.1430 ca         1 GEQ      -0.099000
     23 C5E         -0.8420    -6.8180    -4.3080 ca         1 GEQ      -0.075500
     24 C6E          0.2470    -5.9470    -4.2470 cp         1 GEQ      -0.035500
     25 C1F          2.2810    -4.8880    -3.7420 ca         1 GEQ      -0.115800
     26 C2F          3.5010    -4.7140    -3.1220 ca         1 GEQ      -0.074000
     27 C3F          3.9520    -5.6480    -2.2080 ca         1 GEQ      -0.098000
     28 C4F          3.1820    -6.7590    -1.9130 ca         1 GEQ      -0.099000
     29 C5F          1.9590    -6.9400    -2.5270 ca         1 GEQ      -0.075500
     30 C6F          1.4980    -6.0020    -3.4510 cp         1 GEQ      -0.035500
     31 H1A         -0.5470     0.0000    -0.9350 ha         1 GEQ       0.117000
     32 H3A          3.1770     0.0000     1.2050 ha         1 GEQ       0.119000
     33 H4A          1.9820    -0.0060     3.3320 ha         1 GEQ       0.102000
     34 H7A         -2.9440    -0.0220     0.9020 ha         1 GEQ       0.130000
     35 H8A         -3.0680    -0.0300     3.5080 h4         1 GEQ       0.140000
     36 H9A         -0.6690    -0.0220     4.4190 hn         1 GEQ       0.114700
     37 H2C1         3.2420    -0.0710    -3.5650 h1         1 GEQ       0.040200
     38 H2C2         1.6430    -0.0400    -4.3330 h1         1 GEQ       0.040200
     39 H3C1         2.9240    -1.9450    -5.1960 h1         1 GEQ       0.033700
     40 H3C2         3.2190    -2.5200    -3.5460 h1         1 GEQ       0.033700
     41 H5C1        -0.0520    -3.5570    -2.8010 h1         1 GEQ       0.033700
     42 H5C2         1.6280    -3.3860    -2.2660 h1         1 GEQ       0.033700
     43 H6C1         0.2550    -1.7040    -1.1500 h1         1 GEQ       0.040200
     44 H6C2        -0.3600    -1.1330    -2.7130 h1         1 GEQ       0.040200
     45 H1D          2.1170    -3.9820    -5.6700 h1         1 GEQ       0.050700
     46 H2E         -0.8110    -3.6320    -6.4780 ha         1 GEQ       0.114000
     47 H3E         -2.7290    -5.1790    -6.5760 ha         1 GEQ       0.105500
     48 H4E         -2.7470    -7.2150    -5.1890 ha         1 GEQ       0.104500
     49 H5E         -0.8540    -7.7140    -3.7000 ha         1 GEQ       0.104000
     50 H2F          4.1060    -3.8450    -3.3520 ha         1 GEQ       0.114000
     51 H3F          4.9110    -5.5110    -1.7230 ha         1 GEQ       0.105500
     52 H4F          3.5390    -7.4890    -1.1960 ha         1 GEQ       0.104500
     53 H5F          1.3590    -7.8110    -2.2930 ha         1 GEQ       0.104000
@<TRIPOS>BOND
     1     1     2 ar  
     2     1     6 ar  
     3     1    31 1   
     4     2     3 ar  
     5     2    10 1   
     6     3     4 ar  
     7     3    32 1   
     8     4     5 ar  
     9     4    33 1   
    10     5     6 ar  
    11     5     9 1   
    12     6     7 1   
    13     7     8 2   
    14     7    34 1   
    15     8     9 1   
    16     8    35 1   
    17     9    36 1   
    18    10    11 2   
    19    10    12 1   
    20    12    13 1   
    21    12    17 1   
    22    13    14 1   
    23    13    37 1   
    24    13    38 1   
    25    14    15 1   
    26    14    39 1   
    27    14    40 1   
    28    15    16 1   
    29    15    18 1   
    30    16    17 1   
    31    16    41 1   
    32    16    42 1   
    33    17    43 1   
    34    17    44 1   
    35    18    19 1   
    36    18    25 1   
    37    18    45 1   
    38    19    20 ar  
    39    19    24 ar  
    40    20    21 ar  
    41    20    46 1   
    42    21    22 ar  
    43    21    47 1   
    44    22    23 ar  
    45    22    48 1   
    46    23    24 ar  
    47    23    49 1   
    48    24    30 1   
    49    25    26 ar  
    50    25    30 ar  
    51    26    27 ar  
    52    26    50 1   
    53    27    28 ar  
    54    27    51 1   
    55    28    29 ar  
    56    28    52 1   
    57    29    30 ar  
    58    29    53 1   
@<TRIPOS>SUBSTRUCTURE
     1 GEQ         1 TEMP              0 ****  ****    0 ROOT
