@<TRIPOS>MOLECULE
GER
   54    53     1     0     0
SMALL
bcc


@<TRIPOS>ATOM
      1 C1          0.0210   -1.1910    1.6910 c3        1 GER     -0.061900
      2 C2          1.4080   -0.7040    1.8130 c2        1 GER     -0.174200
      3 C3          1.7650    0.5870    1.7170 c2        1 GER     -0.122400
      4 C4          0.7770    1.6690    1.4890 c3        1 GER     -0.058900
      5 C5          3.1870    1.0120    1.8630 c3        1 GER     -0.039200
      6 C6          3.8210    1.3200    0.5180 c3        1 GER     -0.043200
      7 C7          5.2250    1.7700    0.6570 c2        1 GER     -0.174200
      8 C8          6.0510    1.9520   -0.3860 c2        1 GER     -0.124400
      9 C9          5.6200    1.7040   -1.7840 c3        1 GER     -0.058900
     10 C10         7.4510    2.4240   -0.1950 c3        1 GER     -0.038200
     11 C11         8.4590    1.3400   -0.5360 c3        1 GER     -0.044200
     12 C12         9.8540    1.8180   -0.4010 c2        1 GER     -0.174200
     13 C13        10.9240    1.0120   -0.4990 c2        1 GER     -0.123400
     14 C14        10.7940   -0.4440   -0.7440 c3        1 GER     -0.058900
     15 C15        12.3110    1.5440   -0.3740 c3        1 GER     -0.038200
     16 C16        12.9840    1.0600    0.8970 c3        1 GER     -0.043200
     17 C17        14.3820    1.5380    1.0030 c2        1 GER     -0.177200
     18 C18        15.1450    1.3570    2.0930 c2        1 GER     -0.124400
     19 C19        14.6430    0.6610    3.3020 c3        1 GER     -0.057900
     20 C20        16.5430    1.8460    2.1590 c3        1 GER     -0.057900
     21 H11        -0.2830   -1.2270    0.6130 hc        1 GER      0.040033
     22 H12        -0.0790   -2.2190    2.1170 hc        1 GER      0.040033
     23 H13        -0.6930   -0.5160    2.2280 hc        1 GER      0.040033
     24 H21         2.1720   -1.4790    1.9880 ha        1 GER      0.120000
     25 H41         0.2450    1.9070    2.4440 hc        1 GER      0.041033
     26 H42         0.0120    1.3570    0.7340 hc        1 GER      0.041033
     27 H43         1.2750    2.6000    1.1220 hc        1 GER      0.041033
     28 H51         3.7820    0.2090    2.3750 hc        1 GER      0.046200
     29 H52         3.2320    1.9260    2.5150 hc        1 GER      0.046200
     30 H61         3.2240    2.1180   -0.0050 hc        1 GER      0.050200
     31 H62         3.7780    0.4050   -0.1340 hc        1 GER      0.050200
     32 H71         5.5730    1.9600    1.6860 ha        1 GER      0.123000
     33 H91         6.3700    2.0930   -2.5160 hc        1 GER      0.041367
     34 H92         4.6380    2.2000   -1.9850 hc        1 GER      0.041367
     35 H93         5.4940    0.6050   -1.9580 hc        1 GER      0.041367
     36 H101        7.6120    2.7560    0.8650 hc        1 GER      0.045700
     37 H102        7.6280    3.3180   -0.8530 hc        1 GER      0.045700
     38 H111        8.2840    0.9850   -1.5890 hc        1 GER      0.050200
     39 H112        8.2960    0.4520    0.1350 hc        1 GER      0.050200
     40 H121        9.9810    2.8970   -0.2160 ha        1 GER      0.123000
     41 H141       11.7830   -0.9080   -0.9810 hc        1 GER      0.041367
     42 H142       10.3750   -0.9510    0.1620 hc        1 GER      0.041367
     43 H143       10.0980   -0.6370   -1.5990 hc        1 GER      0.041367
     44 H151       12.3020    2.6670   -0.3810 hc        1 GER      0.045700
     45 H152       12.9110    1.2120   -1.2640 hc        1 GER      0.045700
     46 H161       12.3960    1.4090    1.7900 hc        1 GER      0.049700
     47 H162       12.9710   -0.0650    0.9230 hc        1 GER      0.049700
     48 H171       14.7840    2.0630    0.1200 ha        1 GER      0.122000
     49 H191       14.1950   -0.3270    3.0280 hc        1 GER      0.040533
     50 H192       13.8460    1.2740    3.7950 hc        1 GER      0.040533
     51 H193       15.4620    0.4870    4.0410 hc        1 GER      0.040533
     52 H201       16.8370    2.3870    1.2270 hc        1 GER      0.040533
     53 H202       16.6650    2.5420    3.0260 hc        1 GER      0.040533
     54 H203       17.2440    0.9850    2.3030 hc        1 GER      0.040533
@<TRIPOS>BOND
     1    1    2 1   
     2    1   21 1   
     3    1   22 1   
     4    1   23 1   
     5    2    3 2   
     6    2   24 1   
     7    3    4 1   
     8    3    5 1   
     9    4   25 1   
    10    4   26 1   
    11    4   27 1   
    12    5    6 1   
    13    5   28 1   
    14    5   29 1   
    15    6    7 1   
    16    6   30 1   
    17    6   31 1   
    18    7    8 2   
    19    7   32 1   
    20    8    9 1   
    21    8   10 1   
    22    9   33 1   
    23    9   34 1   
    24    9   35 1   
    25   10   11 1   
    26   10   36 1   
    27   10   37 1   
    28   11   12 1   
    29   11   38 1   
    30   11   39 1   
    31   12   13 2   
    32   12   40 1   
    33   13   14 1   
    34   13   15 1   
    35   14   41 1   
    36   14   42 1   
    37   14   43 1   
    38   15   16 1   
    39   15   44 1   
    40   15   45 1   
    41   16   17 1   
    42   16   46 1   
    43   16   47 1   
    44   17   18 2   
    45   17   48 1   
    46   18   19 1   
    47   18   20 1   
    48   19   49 1   
    49   19   50 1   
    50   19   51 1   
    51   20   52 1   
    52   20   53 1   
    53   20   54 1   
@<TRIPOS>SUBSTRUCTURE
     1 GER         1 TEMP              0 ****  ****    0 ROOT
