@<TRIPOS>MOLECULE
molecule
   54    53     1     0     0
SMALL
bcc


@<TRIPOS>ATOM
      1 C1           0.0000     0.0000     0.0000 c3         1 GER      -0.097900
      2 C2           1.5070     0.0000     0.0000 c2         1 GER      -0.510200
      3 C3           2.1630     0.0000     1.1350 c2         1 GER       0.016600
      4 C4           1.4090     0.0020     2.4400 c3         1 GER      -0.126900
      5 C5           3.6690    -0.0000     1.1340 c3         1 GER      -0.070200
      6 C6           4.1800     1.4360     1.2590 c3         1 GER      -0.089200
      7 C7           5.6870     1.4350     1.2590 c2         1 GER      -0.526200
      8 C8           6.3430     2.0990     0.3380 c2         1 GER       0.036600
      9 C9           5.5950     2.7520    -0.7960 c3         1 GER      -0.128900
     10 C10          7.8440     2.2070     0.4130 c3         1 GER      -0.073200
     11 C11          8.4790     1.1100    -0.4430 c3         1 GER      -0.088200
     12 C12          9.9790     1.2200    -0.3680 c2         1 GER      -0.527200
     13 C13         10.6880     0.2120     0.0790 c2         1 GER       0.039600
     14 C14          9.9980    -1.0040     0.6400 c3         1 GER      -0.128900
     15 C15         12.1940     0.2700     0.0310 c3         1 GER      -0.076200
     16 C16         12.7280     0.7690     1.3740 c3         1 GER      -0.090200
     17 C17         14.2330     0.8260     1.3270 c2         1 GER      -0.518200
     18 C18         14.8480     1.9770     1.4450 c2         1 GER       0.031600
     19 C19         14.0530     3.2550     1.5010 c3         1 GER      -0.094400
     20 C20         16.3530     2.0210     1.5260 c3         1 GER      -0.094400
     21 H11         -0.3610    -1.0100     0.1540 hc         1 GER       0.051033
     22 H12         -0.3610     0.3710    -0.9520 hc         1 GER       0.051033
     23 H13         -0.3610     0.6390     0.7970 hc         1 GER       0.051033
     24 H21          0.8960     0.8750     0.1830 ha         1 GER       0.337000
     25 H41          2.1110    -0.0700     3.2620 hc         1 GER       0.051700
     26 H42          0.7330    -0.8440     2.4680 hc         1 GER       0.051700
     27 H43          0.8420     0.9210     2.5280 hc         1 GER       0.051700
     28 H51          4.0310    -0.5860     1.9700 hc         1 GER       0.072200
     29 H52          4.0300    -0.4330     0.2080 hc         1 GER       0.072200
     30 H61          3.8190     1.8690     2.1840 hc         1 GER       0.061200
     31 H62          3.8200     2.0220     0.4220 hc         1 GER       0.061200
     32 H71          5.1170     0.7610     0.6320 ha         1 GER       0.347000
     33 H91          6.2960     3.2660    -1.4420 hc         1 GER       0.055033
     34 H92          5.0680     1.9950    -1.3650 hc         1 GER       0.055033
     35 H93          4.8830     3.4640    -0.3970 hc         1 GER       0.055033
     36 H101         8.1540     3.1780     0.0450 hc         1 GER       0.071700
     37 H102         8.1630     2.0920     1.4420 hc         1 GER       0.071700
     38 H111         8.1590     1.2250    -1.4720 hc         1 GER       0.062700
     39 H112         8.1690     0.1390    -0.0750 hc         1 GER       0.062700
     40 H121         9.3510     1.4030     0.4950 ha         1 GER       0.345000
     41 H141         9.3580    -1.4380    -0.1180 hc         1 GER       0.055033
     42 H142         9.4010    -0.7170     1.4970 hc         1 GER       0.055033
     43 H143        10.7410    -1.7310     0.9460 hc         1 GER       0.055033
     44 H151        12.5870    -0.7190    -0.1690 hc         1 GER       0.071700
     45 H152        12.5040     0.9480    -0.7550 hc         1 GER       0.071700
     46 H161        12.3350     1.7580     1.5740 hc         1 GER       0.060200
     47 H162        12.4170     0.0910     2.1600 hc         1 GER       0.060200
     48 H171        13.6260     1.0290     0.4530 ha         1 GER       0.341000
     49 H191        13.4130     3.2440     2.3750 hc         1 GER       0.051867
     50 H192        13.4430     3.3400     0.6090 hc         1 GER       0.051867
     51 H193        14.7290     4.0990     1.5580 hc         1 GER       0.051867
     52 H201        16.7400     2.6400     0.7250 hc         1 GER       0.051867
     53 H202        16.7490     1.0180     1.4310 hc         1 GER       0.051867
     54 H203        16.6510     2.4390     2.4810 hc         1 GER       0.051867
@<TRIPOS>BOND
     1     1     2 1
     2     1    21 1
     3     1    22 1
     4     1    23 1
     5     2     3 2
     6     2    24 1
     7     3     4 1
     8     3     5 1
     9     4    25 1
    10     4    26 1
    11     4    27 1
    12     5     6 1
    13     5    28 1
    14     5    29 1
    15     6     7 1
    16     6    30 1
    17     6    31 1
    18     7     8 2
    19     7    32 1
    20     8     9 1
    21     8    10 1
    22     9    33 1
    23     9    34 1
    24     9    35 1
    25    10    11 1
    26    10    36 1
    27    10    37 1
    28    11    12 1
    29    11    38 1
    30    11    39 1
    31    12    13 2
    32    12    40 1
    33    13    14 1
    34    13    15 1
    35    14    41 1
    36    14    42 1
    37    14    43 1
    38    15    16 1
    39    15    44 1
    40    15    45 1
    41    16    17 1
    42    16    46 1
    43    16    47 1
    44    17    18 2
    45    17    48 1
    46    18    19 1
    47    18    20 1
    48    19    49 1
    49    19    50 1
    50    19    51 1
    51    20    52 1
    52    20    53 1
    53    20    54 1
@<TRIPOS>SUBSTRUCTURE
     1 GER         1 TEMP              0 ****  ****    0 ROOT
