@<TRIPOS>MOLECULE
molecule
   35    34     1     0     0
SMALL
bcc


@<TRIPOS>ATOM
      1 C1           0.0000     0.0000     0.0000 c          1 GEY       0.967800
      2 C2           1.4690     0.0000     0.0000 ce         1 GEY      -0.234200
      3 C3           2.1340     0.0000     1.1530 c2         1 GEY      -0.362200
      4 C4           1.4200    -0.3430     2.4350 c3         1 GEY       0.008800
      5 C5           2.2860    -1.2940     3.2630 c3         1 GEY      -0.087400
      6 C6           1.5610    -1.6420     4.5650 c3         1 GEY      -0.088400
      7 C8           1.7000    -2.9410     6.6940 c3         1 GEY      -0.082400
      8 O2          -0.6080     0.1230     1.0450 o          1 GEY      -0.798300
      9 O1          -0.6730    -0.1320    -1.1600 o          1 GEY      -0.798300
     10 C7           2.4250    -2.5930     5.3920 c3         1 GEY      -0.082400
     11 C9           2.5660    -3.8940     7.5220 c3         1 GEY      -0.082400
     12 C10          1.8400    -4.2410     8.8230 c3         1 GEY      -0.082400
     13 C11          2.7060    -5.1930     9.6510 c3         1 GEY      -0.084400
     14 C12          1.9800    -5.5400    10.9530 c3         1 GEY      -0.092100
     15 H1           0.9680    -0.9600     0.0240 ha         1 GEY       0.050000
     16 H2           1.6570     0.8090     1.6920 ha         1 GEY       0.116000
     17 H4           0.4760    -0.8210     2.2060 hc         1 GEY       0.056200
     18 H3           1.2380     0.5640     3.0000 hc         1 GEY       0.056200
     19 H5           3.2300    -0.8150     3.4930 hc         1 GEY       0.034700
     20 H6           2.4690    -2.2000     2.6980 hc         1 GEY       0.034700
     21 H7           1.3780    -0.7360     5.1300 hc         1 GEY       0.038700
     22 H8           0.6160    -2.1200     4.3350 hc         1 GEY       0.038700
     23 H9           0.7550    -3.4200     6.4640 hc         1 GEY       0.039200
     24 H10          1.5170    -2.0350     7.2590 hc         1 GEY       0.039200
     25 H12          3.3700    -2.1150     5.6230 hc         1 GEY       0.036200
     26 H13          2.6080    -3.4990     4.8270 hc         1 GEY       0.036200
     27 H14          3.5100    -3.4160     7.7510 hc         1 GEY       0.038200
     28 H15          2.7480    -4.8000     6.9570 hc         1 GEY       0.038200
     29 H16          1.6580    -3.3340     9.3880 hc         1 GEY       0.040200
     30 H17          0.8950    -4.7190     8.5930 hc         1 GEY       0.040200
     31 H19          2.8880    -6.0990     9.0860 hc         1 GEY       0.038200
     32 H18          3.6510    -4.7150     9.8810 hc         1 GEY       0.038200
     33 H20          2.5930    -6.2140    11.5390 hc         1 GEY       0.029367
     34 H21          1.0360    -6.0180    10.7230 hc         1 GEY       0.029367
     35 H22          1.7990    -4.6340    11.5170 hc         1 GEY       0.029367
@<TRIPOS>BOND
     1     8     1 1
     2     1     2 1
     3     1     9 1
     4     2     3 2
     5     3     4 1
     6     4     5 1
     7     6     5 1
     8     6    10 1
     9     7    10 1
    10     7    11 1
    11    11    12 1
    12    12    13 1
    13    13    14 1
    14     2    15 1
    15     3    16 1
    16     4    17 1
    17     4    18 1
    18     5    19 1
    19     5    20 1
    20     6    21 1
    21     6    22 1
    22     7    23 1
    23     7    24 1
    24    10    25 1
    25    10    26 1
    26    11    27 1
    27    11    28 1
    28    12    29 1
    29    12    30 1
    30    13    31 1
    31    13    32 1
    32    14    33 1
    33    14    34 1
    34    14    35 1
@<TRIPOS>SUBSTRUCTURE
     1 GEY         1 TEMP              0 ****  ****    0 ROOT
