@<TRIPOS>MOLECULE
GEZ
   51    53     1     0     0
SMALL
bcc


@<TRIPOS>ATOM
      1 C1           0.0000     0.0000     0.0000 c3         1 GEZ       0.235700
      2 O2           1.4290     0.0000     0.0000 os         1 GEZ      -0.258900
      3 C3           2.0470     0.0000     1.2090 ca         1 GEZ       0.248100
      4 C4           1.2890    -0.0070     2.3600 ca         1 GEZ      -0.309300
      5 C5           1.9270    -0.0070     3.6100 ca         1 GEZ       0.491600
      6 N6           1.2170    -0.0140     4.7440 nb         1 GEZ      -0.632000
      7 C7           1.7980    -0.0160     5.9220 ca         1 GEZ       0.493200
      8 C8           3.1790    -0.0100     6.0580 ca         1 GEZ      -0.374300
      9 C9           3.9800    -0.0020     4.9250 ca         1 GEZ       0.084600
     10 N10          5.3630     0.0040     5.0290 nu         1 GEZ      -0.163000
     11 C11          5.9800    -0.5320     6.1560 cc         1 GEZ      -0.147700
     12 N12          5.3680    -1.2130     7.1590 na         1 GEZ       0.390400
     13 N13          6.3480    -1.5750     8.0920 nc         1 GEZ      -0.655800
     14 C14          7.5040    -1.1320     7.6700 cd         1 GEZ       0.394600
     15 C15          8.8250    -1.3050     8.3750 c3         1 GEZ      -0.005400
     16 C16          7.3080    -0.4770     6.4520 cd         1 GEZ      -0.359600
     17 C17          8.3760     0.1780     5.6140 c3         1 GEZ       0.115200
     18 C18          3.3420    -0.0010     3.6620 ca         1 GEZ      -0.256300
     19 C19          4.0850     0.0060     2.4730 ca         1 GEZ       0.063000
     20 C20          3.4430     0.0010     1.2730 ca         1 GEZ      -0.177500
     21 S21          4.3830     0.0020    -0.2180 sy         1 GEZ       0.881300
     22 O22          3.4260     0.2680    -1.2350 o          1 GEZ      -0.575300
     23 O23          5.4480     0.9060     0.0410 o          1 GEZ      -0.575300
     24 C24          5.0080    -1.6950    -0.3600 c3         1 GEZ      -0.027200
     25 C25          5.9710    -1.9810     0.7940 c3         1 GEZ       0.023567
     26 C26          3.8360    -2.6770    -0.3010 c3         1 GEZ       0.023567
     27 C27          5.7430    -1.8570    -1.6910 c3         1 GEZ       0.023567
     28 H1          -0.3610    -0.8770     0.5230 h1         1 GEZ       0.001700
     29 H2          -0.3610    -0.0140    -1.0210 h1         1 GEZ       0.001700
     30 H3          -0.3610     0.8920     0.4980 h1         1 GEZ       0.001700
     31 H4           0.2140     0.1070     2.3010 ha         1 GEZ       0.145000
     32 H5           1.1820    -0.0220     6.8130 h4         1 GEZ      -0.023900
     33 H6           3.6280    -0.0110     7.0430 ha         1 GEZ       0.135000
     34 H7           5.9160     0.4360     4.3150 hn         1 GEZ       0.305800
     35 H8           4.3910    -1.4190     7.2210 hn         1 GEZ       0.177700
     36 H9           8.6740    -1.8630     9.2910 hc         1 GEZ       0.012367
     37 H10          9.2390    -0.3320     8.6100 hc         1 GEZ       0.012367
     38 H11          9.5100    -1.8440     7.7320 hc         1 GEZ       0.012367
     39 H12          8.0290     1.1500     5.2830 hc         1 GEZ       0.001700
     40 H13          9.2760     0.2980     6.2050 hc         1 GEZ       0.001700
     41 H14          8.5900    -0.4420     4.7520 hc         1 GEZ       0.001700
     42 H15          5.1680     0.0070     2.5100 ha         1 GEZ       0.116000
     43 H16          5.4060    -2.2490     1.6780 hc         1 GEZ       0.016478
     44 H17          6.5640    -1.0980     0.9980 hc         1 GEZ       0.016478
     45 H18          6.6260    -2.8000     0.5220 hc         1 GEZ       0.016478
     46 H19          4.1920    -3.6770    -0.5130 hc         1 GEZ       0.016478
     47 H20          3.3930    -2.6520     0.6870 hc         1 GEZ       0.016478
     48 H21          3.0920    -2.3950    -1.0370 hc         1 GEZ       0.016478
     49 H22          6.5730    -1.1610    -1.7330 hc         1 GEZ       0.016478
     50 H23          6.1180    -2.8700    -1.7760 hc         1 GEZ       0.016478
     51 H24          5.0610    -1.6540    -2.5080 hc         1 GEZ       0.016478
@<TRIPOS>BOND
     1     1     2 1   
     2     1    28 1   
     3     1    29 1   
     4     1    30 1   
     5     2     3 1   
     6     3     4 ar  
     7     3    20 ar  
     8     4     5 ar  
     9     4    31 1   
    10     5     6 ar  
    11     5    18 ar  
    12     6     7 ar  
    13     7     8 ar  
    14     7    32 1   
    15     8     9 ar  
    16     8    33 1   
    17     9    10 1   
    18     9    18 ar  
    19    10    11 1   
    20    10    34 1   
    21    11    12 1   
    22    11    16 2   
    23    12    13 1   
    24    12    35 1   
    25    13    14 2   
    26    14    15 1   
    27    14    16 1   
    28    15    36 1   
    29    15    37 1   
    30    15    38 1   
    31    16    17 1   
    32    17    39 1   
    33    17    40 1   
    34    17    41 1   
    35    18    19 ar  
    36    19    20 ar  
    37    19    42 1   
    38    20    21 1   
    39    21    22 2   
    40    21    23 2   
    41    21    24 1   
    42    24    25 1   
    43    24    26 1   
    44    24    27 1   
    45    25    43 1   
    46    25    44 1   
    47    25    45 1   
    48    26    46 1   
    49    26    47 1   
    50    26    48 1   
    51    27    49 1   
    52    27    50 1   
    53    27    51 1   
@<TRIPOS>SUBSTRUCTURE
     1 GEZ         1 TEMP              0 ****  ****    0 ROOT
