@<TRIPOS>MOLECULE
molecule
   33    35     1     0     0
SMALL
bcc


@<TRIPOS>ATOM
      1 F            0.0000     0.0000     0.0000 f          1 GF0      -0.205300
      2 N1           1.9980     0.3860    -5.7320 ns         1 GF0      -0.467400
      3 C2           0.9370     0.6390    -4.9170 cc         1 GF0       0.452800
      4 N2          -0.3250     0.6710    -5.4550 nz         1 GF0      -0.726600
      5 N3           1.0860     0.8550    -3.6290 nd         1 GF0      -0.548100
      6 C4           2.2980     0.8350    -3.0600 cd         1 GF0       0.019800
      7 C5           3.4270     0.5800    -3.8450 cc         1 GF0       0.312800
      8 C6           3.2520     0.3440    -5.2280 c          1 GF0       0.624000
      9 O6           4.2080     0.1180    -5.9500 o          1 GF0      -0.522500
     10 N7           4.5050     0.6190    -3.0230 nc         1 GF0      -0.614000
     11 C8           4.1120     0.8760    -1.8110 cd         1 GF0       0.511400
     12 N9           2.7550     1.0170    -1.7840 na         1 GF0      -0.166900
     13 C1'          1.9370     1.3120    -0.6040 c3         1 GF0       0.216800
     14 C2'          1.3990     0.0000     0.0000 c3         1 GF0       0.100600
     15 C3'          1.9410     0.0000     1.4500 c3         1 GF0       0.092100
     16 O3'          0.9470    -0.4660     2.3660 oh         1 GF0      -0.562800
     17 C4'          2.2460     1.5020     1.6830 c3         1 GF0       0.137100
     18 O4'          2.7430     1.9470     0.4030 os         1 GF0      -0.387600
     19 C5'          3.3120     1.6720     2.7680 c3         1 GF0       0.151400
     20 O5'          3.4910     3.0630     3.0450 oh         1 GF0      -0.596800
     21 HN2         -0.3570     1.3490    -6.1910 hn         1 GF0       0.478800
     22 HN2A        -0.5530    -0.2320    -5.8230 hn         1 GF0       0.478800
     23 H1'          1.1110     1.9580    -0.8740 h2         1 GF0       0.109700
     24 H2'          1.7840    -0.8530    -0.5460 h1         1 GF0       0.077700
     25 H3'          2.8470    -0.5900     1.5210 h1         1 GF0       0.066700
     26 H1           1.1180    -1.3680     2.5830 ho         1 GF0       0.422000
     27 H4'          1.3410     2.0360     1.9440 h1         1 GF0       0.102700
     28 H5'A         4.2480     1.2490     2.4240 h1         1 GF0       0.041700
     29 H5'          2.9950     1.1620     3.6690 h1         1 GF0       0.041700
     30 H5T          4.1210     3.1670     3.7390 ho         1 GF0       0.420000
     31 HN1          1.8490     0.2290    -6.7090 hn         1 GF0       0.350500
     32 H23         -0.9850     0.9180    -4.7450 hn         1 GF0       0.478800
     33 H8           4.7650     0.9640    -0.9500 h5         1 GF0       0.112100
@<TRIPOS>BOND
     1     9     8 2
     2     8     7 1
     3     8     2 1
     4    10     7 1
     5    10    11 2
     6     7     6 2
     7     2     3 1
     8    11    12 1
     9     6    12 1
    10     6     5 1
    11     3     5 2
    12     3     4 1
    13    12    13 1
    14    19    20 1
    15    19    17 1
    16    15    17 1
    17    15    14 1
    18    15    16 1
    19    18    13 1
    20    18    17 1
    21    13    14 1
    22    14     1 1
    23     2    31 1
    24     4    21 1
    25     4    22 1
    26    11    33 1
    27    13    23 1
    28    14    24 1
    29    15    25 1
    30    16    26 1
    31    17    27 1
    32    19    28 1
    33    19    29 1
    34    20    30 1
    35    32     4 1
@<TRIPOS>SUBSTRUCTURE
     1 GF0         1 TEMP              0 ****  ****    0 ROOT
