@<TRIPOS>MOLECULE
molecule
   31    33     1     0     0
SMALL
bcc


@<TRIPOS>ATOM
      1 O10          0.0000     0.0000     0.0000 o          1 GF1      -0.602500
      2 C7           1.2120     0.0000     0.0000 c          1 GF1       0.723000
      3 N8           1.9840     0.0000     1.0920 n          1 GF1      -0.454400
      4 C12          1.4350     0.0020     2.4510 c3         1 GF1      -0.010300
      5 C14          1.9070     1.2330     3.1810 c          1 GF1       0.895600
      6 O16          1.5260     1.4460     4.4510 o          1 GF1      -0.832800
      7 O15          2.6270     2.0270     2.6240 o          1 GF1      -0.832800
      8 C13          1.9130    -1.2480     3.1950 c3         1 GF1      -0.080100
      9 C2           2.0860    -0.0090    -1.2340 c3         1 GF1      -0.167200
     10 C3           3.5270    -0.0050    -0.6510 c3         1 GF1      -0.167200
     11 C9           3.2990    -0.0000     0.8440 c          1 GF1       0.723000
     12 O11          4.1710    -0.0000     1.6850 o          1 GF1      -0.602500
     13 C1           1.9330     1.3650    -1.9540 c3         1 GF1      -0.066200
     14 C6           1.8720     2.4090    -0.7980 c3         1 GF1      -0.097400
     15 C5           3.3040     2.4330    -0.2180 c3         1 GF1      -0.097400
     16 C17          3.3980     1.5880    -2.4710 c3         1 GF1      -0.093400
     17 C4           4.1180     1.3710    -1.0840 c3         1 GF1      -0.066200
     18 H12          0.3530     0.0030     2.4030 h1         1 GF1       0.077700
     19 H13          1.1980    -1.5020     3.9680 hc         1 GF1       0.033367
     20 H13A         2.0000    -2.0720     2.4980 hc         1 GF1       0.033367
     21 H13B         2.8780    -1.0530     3.6460 hc         1 GF1       0.033367
     22 H2           1.8950    -0.8540    -1.8840 hc         1 GF1       0.071200
     23 H3           4.1190    -0.8470    -0.9880 hc         1 GF1       0.071200
     24 H1           1.1520     1.4310    -2.7020 hc         1 GF1       0.071700
     25 H6           1.1640     2.0940    -0.0410 hc         1 GF1       0.072200
     26 H6A          1.6050     3.3850    -1.1840 hc         1 GF1       0.072200
     27 H5           3.2930     2.1390     0.8250 hc         1 GF1       0.072200
     28 H5A          3.7380     3.4200    -0.3280 hc         1 GF1       0.072200
     29 H17          3.5430     2.5940    -2.8450 hc         1 GF1       0.037200
     30 H17A         3.6870     0.8370    -3.1960 hc         1 GF1       0.037200
     31 H4           5.1970     1.4640    -1.0820 hc         1 GF1       0.071700
@<TRIPOS>BOND
     1     1     2 2
     2     3     2 1
     3     2     9 1
     4     4     3 1
     5     3    11 1
     6     8     4 1
     7     4     5 1
     8     4    18 1
     9     7     5 1
    10     5     6 1
    11     8    19 1
    12     8    20 1
    13     8    21 1
    14    13     9 1
    15    10     9 1
    16     9    22 1
    17    11    10 1
    18    17    10 1
    19    10    23 1
    20    12    11 2
    21    14    13 1
    22    13    16 1
    23    13    24 1
    24    15    14 1
    25    14    25 1
    26    14    26 1
    27    15    17 1
    28    15    27 1
    29    15    28 1
    30    17    16 1
    31    16    29 1
    32    16    30 1
    33    17    31 1
@<TRIPOS>SUBSTRUCTURE
     1 GF1         1 TEMP              0 ****  ****    0 ROOT
