@<TRIPOS>MOLECULE
GF4
   24    25     1     0     0
SMALL
bcc


@<TRIPOS>ATOM
      1 O11          0.0000     0.0000     0.0000 o          1 GF4      -0.599500
      2 C3           1.2180     0.0000     0.0000 c          1 GF4       0.631700
      3 C4           2.0530     0.0000     1.1410 cc         1 GF4      -0.316400
      4 C12          1.5920    -0.0010     2.5750 c3         1 GF4       0.085800
      5 C13          1.3160     1.4370     3.0230 c3         1 GF4       0.002900
      6 C5           3.3350     0.0010     0.7210 cd         1 GF4      -0.010200
      7 C14          4.5530     0.0010     1.6080 c3         1 GF4       0.089100
      8 N1           3.3420     0.0010    -0.6450 na         1 GF4      -0.258000
      9 N2           2.0130    -0.0050    -1.0900 n          1 GF4       0.000300
     10 C6           1.5910    -0.0060    -2.4110 cc         1 GF4       0.255400
     11 N10          2.3850    -0.0060    -3.5070 na         1 GF4       0.236600
     12 N9           1.5020    -0.0090    -4.6010 nc         1 GF4      -0.394800
     13 N8           0.3070    -0.0090    -4.1170 nd         1 GF4       0.058000
     14 N7           0.3470    -0.0130    -2.8330 nd         1 GF4      -0.367000
     15 H12          0.6850    -0.5870     2.6620 hc         1 GF4       0.017700
     16 H12A         2.3620    -0.4330     3.2010 hc         1 GF4       0.017700
     17 H13          1.8710     2.1240     2.3960 hc         1 GF4       0.004033
     18 H13A         0.2560     1.6450     2.9370 hc         1 GF4       0.004033
     19 H13B         1.6250     1.5590     4.0550 hc         1 GF4       0.004033
     20 H14          5.4460    -0.0180     0.9960 hc         1 GF4       0.018367
     21 H14A         4.5340    -0.8740     2.2470 hc         1 GF4       0.018367
     22 H14B         4.5540     0.8940     2.2210 hc         1 GF4       0.018367
     23 HN10         3.3850    -0.0060    -3.5330 hn         1 GF4       0.166700
     24 H10          4.1560     0.0010    -1.2280 hn         1 GF4       0.317800
@<TRIPOS>BOND
     1     1     2 2   
     2     2     3 1   
     3     2     9 1   
     4     3     4 1   
     5     3     6 2   
     6     4     5 1   
     7     4    15 1   
     8     4    16 1   
     9     5    17 1   
    10     5    18 1   
    11     5    19 1   
    12     6     7 1   
    13     6     8 1   
    14     7    20 1   
    15     7    21 1   
    16     7    22 1   
    17     8     9 1   
    18     8    24 1   
    19     9    10 1   
    20    10    11 1   
    21    10    14 2   
    22    11    12 1   
    23    11    23 1   
    24    12    13 2   
    25    13    14 1   
@<TRIPOS>SUBSTRUCTURE
     1 GF4         1 TEMP              0 ****  ****    0 ROOT
