@<TRIPOS>MOLECULE
molecule
   45    44     1     0     0
SMALL
bcc


@<TRIPOS>ATOM
      1 C01          1.4690     0.0000     0.0000 c3         1 GF5      -0.024500
      2 C02          1.9780     0.0000     1.4430 c3         1 GF5      -0.090400
      3 C03          1.5730     1.3080     2.1260 c3         1 GF5      -0.187400
      4 C04          2.0750     1.3080     3.5470 c          1 GF5       0.690100
      5 C05          2.3230     2.3670     5.7280 c3         1 GF5       0.052700
      6 C06          2.4930     3.8090     6.2080 c3         1 GF5       0.008700
      7 C07          3.7530     6.3290     5.8610 c3         1 GF5      -0.071300
      8 C08          4.7350     7.1890     5.0630 c3         1 GF5      -0.177600
      9 C09          1.3300     1.6560     6.6120 c          1 GF5       0.631100
     10 C10          0.6050     0.8430     8.7920 c3         1 GF5      -0.006000
     11 C11          1.1070     0.8430    10.2130 c          1 GF5       0.883600
     12 C12          1.9710    -1.2310    -0.7100 c          1 GF5       0.874600
     13 N01          0.0000     0.0000     0.0000 nz         1 GF5      -0.792600
     14 N02          1.8350     2.3660     4.3460 ns         1 GF5      -0.554900
     15 O01          2.6960     0.3560     3.9720 o          1 GF5      -0.583100
     16 O02          3.6520     9.6030     5.4050 o          1 GF5      -0.608300
     17 O03          5.2310     8.7990     7.1320 o          1 GF5      -0.608300
     18 O05          0.3810     0.2630    11.1810 o          1 GF5      -0.840300
     19 O06          2.1630     1.3660    10.4800 o          1 GF5      -0.840300
     20 O07          3.2240    -1.2650    -1.1880 o          1 GF5      -0.780300
     21 O08          1.2450    -2.1870    -0.8480 o          1 GF5      -0.780300
     22 S02          4.8010     8.8550     5.7790 s6         1 GF5       1.416700
     23 H1           1.8300     0.8840    -0.5110 hx         1 GF5       0.095700
     24 H2           3.0580    -0.0890     1.4440 hc         1 GF5       0.102200
     25 H3           1.5460    -0.8370     1.9780 hc         1 GF5       0.102200
     26 H4           0.4930     1.3820     2.1370 hc         1 GF5       0.047700
     27 H5           1.9570     1.8930     1.3000 hc         1 GF5       0.047700
     28 H7           3.2770     1.8560     5.7740 h1         1 GF5       0.106700
     29 H8           1.5390     4.3200     6.1630 h1         1 GF5       0.082700
     30 H9           2.8540     3.8090     7.2300 h1         1 GF5       0.082700
     31 H10          2.9170     6.7170     6.4300 h1         1 GF5       0.125700
     32 H11          4.3590     5.5650     6.3330 h1         1 GF5       0.125700
     33 H12          4.4060     7.2510     4.0330 h1         1 GF5       0.111200
     34 H13          5.7210     6.7410     5.1000 h1         1 GF5       0.111200
     35 H15          0.4840    -0.1780     8.4510 h1         1 GF5       0.049200
     36 H16         -0.3490     1.3540     8.7450 h1         1 GF5       0.049200
     37 H17         -0.3340     0.9300     0.1620 hn         1 GF5       0.438800
     38 H18         -0.3340    -0.3250    -0.8860 hn         1 GF5       0.438800
     39 H20          1.3240     3.1520     3.9960 hn         1 GF5       0.315500
     40 H22          2.4300     1.8730     8.3180 hn         1 GF5       0.332500
     41 F1           6.0140     9.5770     5.0050 f          1 GF5      -0.272900
     42 N03          1.5710     1.5330     7.9320 ns         1 GF5      -0.540900
     43 O04          0.3150     1.1960     6.1350 o          1 GF5      -0.634100
     44 H013        -0.3340    -0.6050     0.7240 hn         1 GF5       0.438800
     45 S01          3.6880     4.6640     5.1450 ss         1 GF5      -0.368200
@<TRIPOS>BOND
     1    13     1 1
     2    20    12 1
     3    16    22 2
     4    12     1 1
     5    12    21 1
     6     1     2 1
     7     2     3 1
     8    22     8 1
     9    22    17 2
    10    15     4 2
    11     8     7 1
    12     7    45 1
    13     3     4 1
    14     4    14 1
    15    45     6 1
    16    14     5 1
    17     5     6 1
    18     5     9 1
    19     9    42 1
    20     9    43 2
    21    42    10 1
    22    18    11 1
    23    11    10 1
    24    11    19 1
    25     1    23 1
    26     2    24 1
    27     2    25 1
    28     3    26 1
    29     3    27 1
    30     5    28 1
    31     6    29 1
    32     6    30 1
    33     7    31 1
    34     7    32 1
    35     8    33 1
    36     8    34 1
    37    10    35 1
    38    10    36 1
    39    13    37 1
    40    13    38 1
    41    14    39 1
    42    42    40 1
    43    22    41 1
    44    44    13 1
@<TRIPOS>SUBSTRUCTURE
     1 GF5         1 TEMP              0 ****  ****    0 ROOT
