@<TRIPOS>MOLECULE
GF7
   30    31     1     0     0
SMALL
bcc


@<TRIPOS>ATOM
      1 O18          0.0000     0.0000     0.0000 o          1 GF7      -0.589100
      2 C16          1.2130     0.0000     0.0000 c          1 GF7       0.638700
      3 C17          1.9660     0.0000     1.3050 c3         1 GF7      -0.095100
      4 C9           1.9470    -0.0080    -1.2720 ca         1 GF7      -0.256600
      5 C8           1.2490    -0.0140    -2.4860 ca         1 GF7      -0.019000
      6 C7           1.9380    -0.0200    -3.6710 ca         1 GF7      -0.191000
      7 C10          3.3480    -0.0020    -1.2750 ca         1 GF7      -0.019000
      8 C11          4.0290    -0.0090    -2.4640 ca         1 GF7      -0.191000
      9 C6           3.3300    -0.0200    -3.6690 ca         1 GF7       0.002600
     10 N1           4.0270    -0.0280    -4.8750 n          1 GF7       0.012000
     11 C2           3.4500    -0.1450    -6.0830 c          1 GF7       0.620500
     12 O12          2.2590    -0.2660    -6.2750 o          1 GF7      -0.691500
     13 C5           5.4840     0.1000    -4.9910 c3         1 GF7       0.012000
     14 C4           5.7510     0.4750    -6.4650 c3         1 GF7      -0.151700
     15 C3           4.5030    -0.1040    -7.1690 c3         1 GF7      -0.087400
     16 C13          7.0100    -0.1790    -6.9700 c          1 GF7       0.983600
     17 O14          7.6580    -0.8890    -6.2380 o          1 GF7      -0.883300
     18 O15          7.4130     0.0270    -8.2340 o          1 GF7      -0.883300
     19 H17          1.2620     0.0110     2.1280 hc         1 GF7       0.021033
     20 H17A         2.5810    -0.8900     1.3670 hc         1 GF7       0.021033
     21 H17B         2.5980     0.8790     1.3580 hc         1 GF7       0.021033
     22 H8           0.1670     0.0360    -2.4890 ha         1 GF7       0.106000
     23 H7           1.3990    -0.0180    -4.6100 ha         1 GF7       0.150000
     24 H10          3.8920    -0.0430    -0.3390 ha         1 GF7       0.106000
     25 H11          5.1120    -0.0150    -2.4670 ha         1 GF7       0.150000
     26 H5           5.8440     0.8840    -4.3350 h1         1 GF7       0.040700
     27 H5A          5.9610    -0.8440    -4.7540 h1         1 GF7       0.040700
     28 H4           5.7930     1.5510    -6.5850 hc         1 GF7       0.032700
     29 H3           4.7050    -1.1020    -7.5360 hc         1 GF7       0.049700
     30 H3A          4.1880     0.5480    -7.9750 hc         1 GF7       0.049700
@<TRIPOS>BOND
     1     1     2 2   
     2     2     3 1   
     3     2     4 1   
     4     3    19 1   
     5     3    20 1   
     6     3    21 1   
     7     4     5 ar  
     8     4     7 ar  
     9     5     6 ar  
    10     5    22 1   
    11     6     9 ar  
    12     6    23 1   
    13     7     8 ar  
    14     7    24 1   
    15     8     9 ar  
    16     8    25 1   
    17     9    10 1   
    18    10    11 1   
    19    10    13 1   
    20    11    12 2   
    21    11    15 1   
    22    13    14 1   
    23    13    26 1   
    24    13    27 1   
    25    14    15 1   
    26    14    16 1   
    27    14    28 1   
    28    15    29 1   
    29    15    30 1   
    30    16    17 1   
    31    16    18 1   
@<TRIPOS>SUBSTRUCTURE
     1 GF7         1 TEMP              0 ****  ****    0 ROOT
