@<TRIPOS>MOLECULE
molecule
   42    44     1     0     0
SMALL
bcc


@<TRIPOS>ATOM
      1 O2           0.0000     0.0000     0.0000 os         1 GFA      -0.320900
      2 Cl1          5.9200    -0.0200    -0.0170 cl         1 GFA      -0.117400
      3 O3          -2.6930    -0.0980     0.1810 o          1 GFA      -0.514100
      4 O1           1.2920     1.1470    -3.1200 o          1 GFA      -0.478100
      5 N1          -2.9240    -2.2450    -0.5730 ns         1 GFA      -0.543100
      6 C12          2.0520     0.0000     1.1990 ca         1 GFA      -0.140000
      7 C8           2.0620     0.0000    -1.2130 ca         1 GFA      -0.166600
      8 C9           3.4600     0.0000    -1.1990 ca         1 GFA      -0.081000
      9 C6           0.5920    -1.1020    -3.1180 ca         1 GFA      -0.165600
     10 C7           1.3130     0.1150    -2.5390 c          1 GFA       0.606300
     11 C13          1.3560     0.0000     0.0000 ca         1 GFA       0.132100
     12 C1          -0.0870    -0.9970    -4.3210 ca         1 GFA      -0.090500
     13 C10          4.1350     0.0000     0.0030 ca         1 GFA       0.033400
     14 C21         -4.9440    -1.0680    -1.5230 ca         1 GFA      -0.155500
     15 C14         -0.6490    -1.2670     0.1170 c3         1 GFA       0.055400
     16 C16         -4.3470    -2.1030    -0.8220 ca         1 GFA       0.089600
     17 C4          -0.0350    -3.4130    -2.9660 ca         1 GFA      -0.140500
     18 C15         -2.1460    -1.0980    -0.1400 c          1 GFA       0.673100
     19 C11          3.4340    -0.0010     1.1990 ca         1 GFA      -0.099000
     20 C20         -6.2040    -1.2400    -2.0730 ca         1 GFA      -0.108000
     21 C17         -5.0110    -3.3100    -0.6700 ca         1 GFA      -0.155500
     22 C5           0.6180    -2.3100    -2.4400 ca         1 GFA      -0.090500
     23 C18         -6.2710    -3.4820    -1.2200 ca         1 GFA      -0.108000
     24 C3          -0.7140    -3.3080    -4.1680 ca         1 GFA      -0.102000
     25 C19         -6.8670    -2.4470    -1.9210 ca         1 GFA      -0.150000
     26 C2          -0.7400    -2.1000    -4.8460 ca         1 GFA      -0.140500
     27 HN1         -2.4860    -3.1400    -0.6660 hn         1 GFA       0.326500
     28 H12          1.5130     0.0000     2.1380 ha         1 GFA       0.154000
     29 H9           4.0110     0.0220    -2.1320 ha         1 GFA       0.158000
     30 H1          -0.1070    -0.0520    -4.8520 ha         1 GFA       0.144500
     31 H21         -4.4250    -0.1250    -1.6420 ha         1 GFA       0.141000
     32 H14         -0.4960    -1.6600     1.1150 h1         1 GFA       0.057700
     33 H14A        -0.2330    -1.9540    -0.6090 h1         1 GFA       0.057700
     34 H4          -0.0150    -4.3570    -2.4350 ha         1 GFA       0.135500
     35 H11          3.9760    -0.0010     2.1370 ha         1 GFA       0.151000
     36 H20         -6.6700    -0.4310    -2.6220 ha         1 GFA       0.133000
     37 H17         -4.5440    -4.1190    -0.1210 ha         1 GFA       0.141000
     38 H5           1.1490    -2.3920    -1.5000 ha         1 GFA       0.144500
     39 H18         -6.7890    -4.4250    -1.1010 ha         1 GFA       0.133000
     40 H3          -1.2250    -4.1710    -4.5790 ha         1 GFA       0.135000
     41 H19         -7.8520    -2.5810    -2.3510 ha         1 GFA       0.131000
     42 H2          -1.2710    -2.0180    -5.7870 ha         1 GFA       0.135500
@<TRIPOS>BOND
     1     1    11 1
     2     1    15 1
     3     2    13 1
     4     3    18 2
     5     4    10 2
     6     5    16 1
     7     5    18 1
     8     6    11 ar
     9     6    19 ar
    10     7     8 ar
    11     7    10 1
    12     7    11 ar
    13     8    13 ar
    14     9    10 1
    15     9    12 ar
    16     9    22 ar
    17    12    26 ar
    18    13    19 ar
    19    14    16 ar
    20    14    20 ar
    21    15    18 1
    22    16    21 ar
    23    17    22 ar
    24    17    24 ar
    25    20    25 ar
    26    21    23 ar
    27    23    25 ar
    28    24    26 ar
    29     5    27 1
    30     6    28 1
    31     8    29 1
    32    12    30 1
    33    14    31 1
    34    15    32 1
    35    15    33 1
    36    17    34 1
    37    19    35 1
    38    20    36 1
    39    21    37 1
    40    22    38 1
    41    23    39 1
    42    24    40 1
    43    25    41 1
    44    26    42 1
@<TRIPOS>SUBSTRUCTURE
     1 GFA         1 TEMP              0 ****  ****    0 ROOT
