@<TRIPOS>MOLECULE
molecule
   46    48     1     0     0
SMALL
bcc


@<TRIPOS>ATOM
      1 N1           0.0000     0.0000     0.0000 ns         1 GFC      -0.479400
      2 C2           1.3630     0.0000     0.0000 cc         1 GFC       0.078800
      3 N2           2.0300     0.0000    -1.2000 nz         1 GFC      -0.607600
      4 N3           2.0580     0.0000     1.1160 nd         1 GFC      -0.740100
      5 C4           1.4520    -0.0010     2.3080 cd         1 GFC       0.146800
      6 C5           0.0540     0.0000     2.3750 cc         1 GFC       0.068800
      7 C6          -0.6820    -0.0000     1.1670 c          1 GFC       0.681000
      8 O6          -1.9010     0.0000     1.1780 o          1 GFC      -0.724500
      9 N7          -0.2860    -0.0010     3.6870 nc         1 GFC      -0.639000
     10 C8           0.7940    -0.0000     4.4120 cd         1 GFC       0.378400
     11 N9           1.8940    -0.0000     3.6030 na         1 GFC      -0.244900
     12 PA           4.5260    -1.6810     9.5340 p5         1 GFC       1.434800
     13 PB           4.4550    -4.3760    10.7630 p5         1 GFC       1.195600
     14 PG           4.6730    -7.2630    11.4590 p5         1 GFC       0.915700
     15 C1'          3.2920    -0.0010     4.0420 c3         1 GFC       0.268800
     16 O1A          5.6630    -0.9010    10.3680 o          1 GFC      -0.832500
     17 O1B          2.8680    -4.4330    11.0230 o          1 GFC      -0.629500
     18 O1G          3.0850    -7.3200    11.7200 o          1 GFC      -0.601167
     19 C2'          3.8290     1.4430     4.0790 c3         1 GFC      -0.159400
     20 O2A          3.1950    -1.3520    10.0900 o          1 GFC      -0.832500
     21 O2B          5.1490    -4.0210    12.0210 o          1 GFC      -0.629500
     22 O2G          5.1860    -8.7020    10.9530 o          1 GFC      -0.601167
     23 C3'          4.2750     1.6440     5.5470 c3         1 GFC       0.100100
     24 O3'          5.5110     2.3600     5.6120 oh         1 GFC      -0.602800
     25 O3A          4.7770    -3.2680     9.6410 os         1 GFC      -0.703800
     26 C3B          5.0360    -6.0070    10.1900 c3         1 GFC       0.189300
     27 F3B          4.3800    -6.3430     9.0000 f          1 GFC      -0.201300
     28 Cl3B         6.8140    -5.9430     9.8980 cl         1 GFC      -0.163400
     29 O3G          5.3670    -6.9070    12.7180 o          1 GFC      -0.601167
     30 C4'          4.4570     0.1840     6.0340 c3         1 GFC       0.134100
     31 O4'          3.3860    -0.5260     5.3770 os         1 GFC      -0.379600
     32 C5'          4.3040     0.1010     7.5540 c3         1 GFC       0.241400
     33 O5'          4.5900    -1.2300     7.9900 os         1 GFC      -0.600200
     34 HN1         -0.4980     0.0000    -0.8680 hn         1 GFC       0.268500
     35 HN2          1.7530    -0.7990    -1.7350 hn         1 GFC       0.350133
     36 HN2A         1.8050     0.8340    -1.7060 hn         1 GFC       0.350133
     37 H8           0.8180    -0.0000     5.4950 h5         1 GFC       0.070100
     38 H1'          3.8940    -0.5990     3.3700 h2         1 GFC       0.062700
     39 H2'          3.0450     2.1450     3.8230 hc         1 GFC       0.055700
     40 H2'A         4.6750     1.5480     3.4100 hc         1 GFC       0.055700
     41 H3'          3.5020     2.1450     6.1170 h1         1 GFC       0.051700
     42 HO3'         5.3390     3.2700     5.7870 ho         1 GFC       0.387000
     43 H4'          5.4180    -0.2040     5.7190 h1         1 GFC       0.066700
     44 H5'          3.2890     0.3610     7.8300 h1         1 GFC       0.036700
     45 H5'A         4.9930     0.7910     8.0250 h1         1 GFC       0.036700
     46 H23          3.0160    -0.0260    -1.0340 hn         1 GFC       0.350133
@<TRIPOS>BOND
     1     1     2 1
     2     1     7 1
     3     1    34 1
     4     2     3 1
     5     2     4 2
     6     3    35 1
     7     3    36 1
     8     4     5 1
     9     5     6 2
    10     5    11 1
    11     6     7 1
    12     6     9 1
    13     7     8 2
    14     9    10 2
    15    10    11 1
    16    10    37 1
    17    11    15 1
    18    12    16 1
    19    12    20 1
    20    12    25 1
    21    12    33 1
    22    13    17 1
    23    13    21 1
    24    13    25 1
    25    13    26 1
    26    14    18 1
    27    14    22 1
    28    14    26 1
    29    14    29 1
    30    15    19 1
    31    15    31 1
    32    15    38 1
    33    19    23 1
    34    19    39 1
    35    19    40 1
    36    23    24 1
    37    23    30 1
    38    23    41 1
    39    24    42 1
    40    26    27 1
    41    26    28 1
    42    30    31 1
    43    30    32 1
    44    30    43 1
    45    32    33 1
    46    32    44 1
    47    32    45 1
    48    46     3 1
@<TRIPOS>SUBSTRUCTURE
     1 GFC         1 TEMP              0 ****  ****    0 ROOT
