@<TRIPOS>MOLECULE
molecule
   46    48     1     0     0
SMALL
bcc


@<TRIPOS>ATOM
      1 P1           0.0000     0.0000     0.0000 p5         1 GFF       1.394800
      2 O1A          1.6170     0.0000     0.0000 o          1 GFF      -0.834000
      3 O2A         -0.6290     0.0000     1.3620 o          1 GFF      -0.834000
      4 O3A         -0.3630     1.2660    -0.9330 os         1 GFF      -0.707800
      5 O5'         -0.3780    -1.2670    -0.9340 os         1 GFF      -0.578200
      6 P2          -0.1310     2.8520    -0.7450 p5         1 GFF       1.323600
      7 O1B          1.4670     2.9580    -0.9660 o          1 GFF      -0.771500
      8 O2B         -0.6230     3.4230     0.5510 o          1 GFF      -0.771500
      9 C3B         -0.7970     3.5680    -2.1820 c3         1 GFF       0.081200
     10 F1B         -0.4120     4.8570    -2.0510 f          1 GFF      -0.272300
     11 F2B         -2.1220     3.5180    -1.9170 f          1 GFF      -0.272300
     12 P3          -0.7600     3.3620    -3.9090 p5         1 GFF       1.123700
     13 O1G          0.8060     3.5170    -4.2780 o          1 GFF      -0.682167
     14 O2G         -1.0380     1.7860    -4.1350 o          1 GFF      -0.682167
     15 O3G         -1.6730     4.2780    -4.6700 o          1 GFF      -0.682167
     16 C5'          0.1780    -1.3360    -2.2350 c3         1 GFF       0.188400
     17 C4'         -0.3160    -2.6040    -2.9190 c3         1 GFF       0.119100
     18 O4'         -1.7520    -2.5220    -3.0290 os         1 GFF      -0.393600
     19 C1'         -2.1080    -2.4860    -4.4220 c3         1 GFF       0.269800
     20 N9          -3.2260    -1.5710    -4.6270 na         1 GFF      -0.215900
     21 C4          -4.2320    -1.6840    -5.5450 cc         1 GFF       0.075800
     22 N3          -4.3760    -2.6820    -6.4460 nc         1 GFF      -0.626100
     23 C2          -5.4390    -2.5360    -7.2070 cd         1 GFF       0.171800
     24 N2          -5.7620    -3.4420    -8.1840 nz         1 GFF      -0.651600
     25 N1          -6.3250    -1.4410    -7.0800 ns         1 GFF      -0.520400
     26 C6          -6.1940    -0.3970    -6.1540 c          1 GFF       0.666000
     27 O6          -6.9590     0.5520    -6.0400 o          1 GFF      -0.647500
     28 C5          -5.0260    -0.5830    -5.3370 cd         1 GFF       0.172800
     29 N7          -4.5560     0.2070    -4.3300 nd         1 GFF      -0.603000
     30 C8          -3.4670    -0.4160    -3.9210 cc         1 GFF       0.493400
     31 C2'         -0.8460    -2.1140    -5.1870 c3         1 GFF      -0.137400
     32 C3'          0.2260    -2.7570    -4.3360 c3         1 GFF       0.105100
     33 O3'          0.2980    -4.1400    -4.6730 oh         1 GFF      -0.625800
     34 HN21        -5.0800    -4.1750    -8.1980 hn         1 GFF       0.358800
     35 HN22        -6.6650    -3.8300    -7.9940 hn         1 GFF       0.358800
     36 HN1         -7.1100    -1.4090    -7.7000 hn         1 GFF       0.259500
     37 H8          -2.8350    -0.0570    -3.1180 h5         1 GFF       0.124100
     38 H1'         -2.4120    -3.4800    -4.7250 h2         1 GFF       0.049700
     39 H2'1        -0.7180    -1.0390    -5.2210 hc         1 GFF       0.085700
     40 H2'2        -0.8570    -2.5430    -6.1820 hc         1 GFF       0.085700
     41 H3'          1.1800    -2.2580    -4.4550 h1         1 GFF       0.068700
     42 H1           1.1920    -4.3720    -4.8600 ho         1 GFF       0.381000
     43 H4'         -0.0450    -3.4720    -2.3300 h1         1 GFF       0.058700
     44 H5'1        -0.1320    -0.4700    -2.8080 h1         1 GFF       0.067700
     45 H5'2         1.2590    -1.3580    -2.1670 h1         1 GFF       0.067700
     46 H23         -5.7820    -2.9810    -9.0720 hn         1 GFF       0.358800
@<TRIPOS>BOND
     1     1     5 1
     2     1     2 1
     3     1     3 1
     4     1     4 1
     5     4     6 1
     6     5    16 1
     7     6     7 1
     8     6     8 1
     9     6     9 1
    10     9    10 1
    11     9    11 1
    12     9    12 1
    13    12    13 1
    14    12    14 1
    15    12    15 1
    16    16    17 1
    17    16    44 1
    18    16    45 1
    19    17    32 1
    20    17    18 1
    21    17    43 1
    22    18    19 1
    23    19    20 1
    24    19    31 1
    25    19    38 1
    26    20    30 1
    27    20    21 1
    28    21    28 2
    29    21    22 1
    30    22    23 2
    31    23    24 1
    32    23    25 1
    33    24    34 1
    34    24    35 1
    35    25    26 1
    36    25    36 1
    37    26    27 2
    38    26    28 1
    39    28    29 1
    40    29    30 2
    41    30    37 1
    42    31    32 1
    43    31    39 1
    44    31    40 1
    45    32    33 1
    46    32    41 1
    47    33    42 1
    48    46    24 1
@<TRIPOS>SUBSTRUCTURE
     1 GFF         1 TEMP              0 ****  ****    0 ROOT
