@<TRIPOS>MOLECULE
GFH
   46    48     1     0     0
SMALL
bcc


@<TRIPOS>ATOM
      1 PA          0.0000    0.0000    0.0000 p5        1 GFH      0.970800
      2 O1A         1.6100    0.0000    0.0000 o         1 GFH     -0.664000
      3 O2A        -0.4930    0.0000    1.3960 o         1 GFH     -0.664000
      4 O3A        -0.5370    1.3150   -0.7590 os        1 GFH     -0.504800
      5 O5'        -0.5370   -1.3140   -0.7600 os        1 GFH     -0.500200
      6 PB         -0.6260    2.8740   -0.3670 p5        1 GFH      0.697600
      7 O1B        -1.5430    3.0460    0.9450 o         1 GFH     -0.453000
      8 O2B         0.7320    3.3920   -0.0910 o         1 GFH     -0.453000
      9 C3B        -1.3640    3.8070   -1.7480 c3        1 GFH      0.570200
     10 F3B        -0.5680    3.6570   -2.8890 f         1 GFH     -0.197300
     11 PG         -1.4660    5.5720   -1.3060 p5        1 GFH      0.488700
     12 O1G         0.0130    6.1360   -1.0060 o         1 GFH     -0.495167
     13 O2G        -2.1170    6.3960   -2.5260 o         1 GFH     -0.495167
     14 O3G        -2.3080    5.7290   -0.0990 o         1 GFH     -0.495167
     15 C5'        -0.3190   -2.6390   -0.2700 c3        1 GFH      0.315400
     16 C4'        -0.9580   -3.6470   -1.2270 c3        1 GFH      0.147100
     17 O4'        -0.2290   -3.6890   -2.4730 os        1 GFH     -0.368600
     18 C1'        -0.5730   -4.9570   -3.0740 c3        1 GFH      0.181800
     19 N9          0.4360   -5.3430   -4.0620 na        1 GFH      0.174100
     20 C4          0.2500   -6.1950   -5.1170 cc        1 GFH      0.005800
     21 N3         -0.7920   -6.8990   -5.5760 nc        1 GFH     -0.719100
     22 C2         -0.6820   -7.6570   -6.6440 cd        1 GFH     -0.399200
     23 N2         -1.7780   -8.3610   -7.0770 nz        1 GFH      0.362400
     24 N1          0.4880   -7.7640   -7.3350 ns        1 GFH     -0.019400
     25 C6          1.5840   -7.0830   -6.9310 c         1 GFH      0.605000
     26 O6          2.6340   -7.1720   -7.5420 o         1 GFH     -0.817500
     27 C5          1.4790   -6.2630   -5.7840 cd        1 GFH     -0.054200
     28 N7          2.3430   -5.4620   -5.1140 nd        1 GFH     -0.531000
     29 C8          1.7300   -4.9160   -4.1050 cc        1 GFH      0.130400
     30 C2'        -0.5850   -5.9600   -1.8980 c3        1 GFH     -0.114400
     31 C3'        -0.8440   -5.0780   -0.6550 c3        1 GFH      0.148100
     32 O3'        -2.0640   -5.4600   -0.0150 oh        1 GFH     -0.589800
     33 H3B        -2.3590    3.4270   -1.9500 h1        1 GFH      0.010700
     34 H5'1       -0.7670   -2.7390    0.7120 h1        1 GFH     -0.017800
     35 H5'2        0.7450   -2.8290   -0.2020 h1        1 GFH     -0.017800
     36 H4'        -1.9960   -3.3970   -1.4080 h1        1 GFH      0.024700
     37 H1'        -1.5540   -4.9020   -3.5290 h2        1 GFH      0.023700
     38 HN21       -1.5940   -9.3420   -7.0050 hn        1 GFH      0.054133
     39 HN22       -2.5690   -8.1270   -6.5100 hn        1 GFH      0.054133
     40 HN1         0.5360   -8.3490   -8.1450 hn        1 GFH      0.100500
     41 H8          2.1810   -4.2240   -3.4040 h5        1 GFH      0.018100
     42 H2'1       -1.3850   -6.6800   -2.0240 hc        1 GFH      0.028700
     43 H2'2        0.3740   -6.4570   -1.8150 hc        1 GFH      0.028700
     44 H3'        -0.0110   -5.1440    0.0340 h1        1 GFH      0.007700
     45 HO3'       -1.8690   -5.9720    0.7530 ho        1 GFH      0.368000
     46 H23        -1.9700   -8.1260   -8.0310 hn        1 GFH      0.054133
@<TRIPOS>BOND
     1    1    2 1   
     2    1    3 1   
     3    1    4 1   
     4    1    5 1   
     5    4    6 1   
     6    5   15 1   
     7    6    7 1   
     8    6    8 1   
     9    6    9 1   
    10    9   10 1   
    11    9   11 1   
    12    9   33 1   
    13   11   12 1   
    14   11   13 1   
    15   11   14 1   
    16   15   16 1   
    17   15   34 1   
    18   15   35 1   
    19   16   17 1   
    20   16   31 1   
    21   16   36 1   
    22   17   18 1   
    23   18   19 1   
    24   18   30 1   
    25   18   37 1   
    26   19   20 1   
    27   19   29 1   
    28   20   21 1   
    29   20   27 2   
    30   21   22 2   
    31   22   23 1   
    32   22   24 1   
    33   23   38 1   
    34   23   39 1   
    35   23   46 1   
    36   24   25 1   
    37   24   40 1   
    38   25   26 2   
    39   25   27 1   
    40   27   28 1   
    41   28   29 2   
    42   29   41 1   
    43   30   31 1   
    44   30   42 1   
    45   30   43 1   
    46   31   32 1   
    47   31   44 1   
    48   32   45 1   
@<TRIPOS>SUBSTRUCTURE
     1 GFH         1 TEMP              0 ****  ****    0 ROOT
