@<TRIPOS>MOLECULE
molecule
   50    55     1     0     0
SMALL
bcc


@<TRIPOS>ATOM
      1 N12          0.0000     0.0000     0.0000 nc         1 GFJ      -0.556100
      2 C13          1.3550     0.0000     0.0000 ca         1 GFJ       0.142400
      3 C15          2.3230     0.0000     1.0250 ca         1 GFJ      -0.058500
      4 C17          4.0680     0.0010    -0.6440 cp         1 GFJ      -0.037000
      5 C24          1.9060    -0.0010     2.4410 cc         1 GFJ       0.413000
      6 C26          1.9080     0.0020     4.6190 cc         1 GFJ       0.353400
      7 C01          0.3910     3.5550    -5.6940 ca         1 GFJ      -0.140000
      8 C02          0.4730     3.6030    -4.3050 ca         1 GFJ      -0.141000
      9 C03          0.4790     1.2110    -4.2160 ca         1 GFJ      -0.173300
     10 C04          0.3960     1.1590    -5.6290 ca         1 GFJ       0.407600
     11 C05          0.3530     2.3640    -6.3550 ca         1 GFJ       0.088600
     12 C06          0.5230     0.0000    -3.4890 ca         1 GFJ       0.049800
     13 C07          0.4810    -1.1860    -4.2020 ca         1 GFJ      -0.238300
     14 C08          0.3980    -1.1530    -5.5880 ca         1 GFJ       0.440200
     15 N09          0.3590    -0.0230    -6.2530 nb         1 GFJ      -0.654000
     16 N10          0.6060    -0.0000    -2.0980 na         1 GFJ      -0.098400
     17 C11         -0.4410    -0.0000    -1.2250 cd         1 GFJ       0.448800
     18 C14          1.7660    -0.0000    -1.3430 ca         1 GFJ      -0.084200
     19 C16          3.6720     0.0000     0.6950 ca         1 GFJ      -0.114000
     20 C18          3.1150    -0.0010    -1.6580 ca         1 GFJ      -0.091000
     21 C19          0.5170     2.4550    -3.5670 ca         1 GFJ       0.137900
     22 F20          0.5970     2.5160    -2.2200 f          1 GFJ      -0.116900
     23 C23          5.5110     0.0020    -0.9850 cp         1 GFJ      -0.006000
     24 N25          2.7310     0.0050     3.5340 na         1 GFJ      -0.441700
     25 N27          0.6790    -0.0010     4.1790 nd         1 GFJ      -0.357000
     26 N28          0.6700    -0.0010     2.8930 nd         1 GFJ      -0.305000
     27 C29          6.3850     0.9210    -0.4020 ca         1 GFJ      -0.040400
     28 C30          7.7310     0.8860    -0.7530 ca         1 GFJ       0.673200
     29 N31          8.1780    -0.0030    -1.6260 nb         1 GFJ      -0.726000
     30 C32          7.3780    -0.8860    -2.1960 ca         1 GFJ       0.446200
     31 C33          6.0340    -0.9220    -1.8990 ca         1 GFJ      -0.270300
     32 F34          5.9310     1.8300     0.4890 f          1 GFJ      -0.135900
     33 N35          8.6160     1.7950    -0.1800 nv         1 GFJ      -1.028500
     34 H1          -2.0980    -0.8550    -2.2530 hc         1 GFJ       0.064367
     35 H2          -2.1240     0.9120    -2.1570 hc         1 GFJ       0.064367
     36 H3          -2.5110    -0.0570    -0.7290 hc         1 GFJ       0.064367
     37 H4           2.2170     0.0040     5.6570 h5         1 GFJ       0.071100
     38 H5           0.3580     4.4790    -6.2580 ha         1 GFJ       0.159000
     39 H6           0.5020     4.5620    -3.8030 ha         1 GFJ       0.159000
     40 H7           0.5110    -2.1360    -3.6810 ha         1 GFJ       0.159000
     41 H8           0.3660    -2.0870    -6.1360 h4         1 GFJ       0.037100
     42 H9           4.4190     0.0020     1.4790 ha         1 GFJ       0.135000
     43 H10          3.4290    -0.0000    -2.6950 ha         1 GFJ       0.139000
     44 H11          3.7310     0.0070     3.5350 hn         1 GFJ       0.306700
     45 H12          7.7870    -1.5970    -2.9040 h4         1 GFJ       0.029100
     46 H13          5.3870    -1.6500    -2.3730 ha         1 GFJ       0.147000
     47 H14          9.5430     1.5060     0.0610 hn         1 GFJ       0.445300
     48 H15          8.3190     2.7320     0.0080 hn         1 GFJ       0.445300
     49 C22         -1.8960    -0.0000    -1.6190 c3         1 GFJ      -0.098400
     50 F21          0.2730     2.3400    -7.7040 f          1 GFJ      -0.113900
@<TRIPOS>BOND
     1     7     8 ar
     2     7    11 ar
     3    50    11 1
     4     8    21 ar
     5    11    10 ar
     6    21    22 1
     7    21     9 ar
     8    10     9 ar
     9    10    15 ar
    10    49    17 1
    11     9    12 ar
    12    15    14 ar
    13    17     1 2
    14    17    16 1
    15    14    13 ar
    16    12    16 1
    17    12    13 ar
    18     1     2 1
    19    16    18 1
    20     2    18 ar
    21     2     3 ar
    22    18    20 ar
    23    24     6 1
    24    24     5 1
    25     6    25 2
    26    20     4 ar
    27     3     5 1
    28     3    19 ar
    29     5    26 2
    30    25    26 1
    31    19     4 ar
    32     4    23 1
    33    32    27 1
    34    23    27 ar
    35    23    31 ar
    36    27    28 ar
    37    31    30 ar
    38    28    33 1
    39    28    29 ar
    40    30    29 ar
    41    49    34 1
    42    49    35 1
    43    49    36 1
    44     6    37 1
    45     7    38 1
    46     8    39 1
    47    13    40 1
    48    14    41 1
    49    19    42 1
    50    20    43 1
    51    24    44 1
    52    30    45 1
    53    31    46 1
    54    33    47 1
    55    33    48 1
@<TRIPOS>SUBSTRUCTURE
     1 GFJ         1 TEMP              0 ****  ****    0 ROOT
