@<TRIPOS>MOLECULE
GFJ
   50    55     1     0     0
SMALL
bcc


@<TRIPOS>ATOM
      1 N12          0.0000     0.0000     0.0000 nc         1 GFJ      -0.462100
      2 C13          1.3550     0.0000     0.0000 ca         1 GFJ       0.107400
      3 C15          2.3230     0.0000     1.0250 ca         1 GFJ      -0.041500
      4 C17          4.0680     0.0010    -0.6440 cp         1 GFJ      -0.033000
      5 C24          1.9060    -0.0010     2.4410 cc         1 GFJ       0.222000
      6 C26          1.9080     0.0020     4.6190 cc         1 GFJ       0.184400
      7 C01          0.3910     3.5550    -5.6940 ca         1 GFJ      -0.108000
      8 C02          0.4730     3.6030    -4.3050 ca         1 GFJ      -0.093000
      9 C03          0.4790     1.2110    -4.2160 ca         1 GFJ      -0.146300
     10 C04          0.3960     1.1590    -5.6290 ca         1 GFJ       0.363600
     11 C05          0.3530     2.3640    -6.3550 ca         1 GFJ       0.068600
     12 C06          0.5230     0.0000    -3.4890 ca         1 GFJ      -0.122200
     13 C07          0.4810    -1.1860    -4.2020 ca         1 GFJ      -0.180300
     14 C08          0.3980    -1.1530    -5.5880 ca         1 GFJ       0.412200
     15 N09          0.3590    -0.0230    -6.2530 nb         1 GFJ      -0.527000
     16 N10          0.6060    -0.0000    -2.0980 na         1 GFJ       0.402600
     17 C11         -0.4410    -0.0000    -1.2250 cd         1 GFJ       0.221800
     18 C14          1.7660    -0.0000    -1.3430 ca         1 GFJ      -0.261200
     19 C16          3.6720     0.0000     0.6950 ca         1 GFJ      -0.111000
     20 C18          3.1150    -0.0010    -1.6580 ca         1 GFJ      -0.060000
     21 C19          0.5170     2.4550    -3.5670 ca         1 GFJ       0.108900
     22 F20          0.5970     2.5160    -2.2200 f          1 GFJ      -0.115900
     23 C23          5.5110     0.0020    -0.9850 cp         1 GFJ       0.015000
     24 N25          2.7310     0.0050     3.5340 na         1 GFJ       0.086300
     25 N27          0.6790    -0.0010     4.1790 nd         1 GFJ      -0.331000
     26 N28          0.6700    -0.0010     2.8930 nd         1 GFJ      -0.280000
     27 C29          6.3850     0.9210    -0.4020 ca         1 GFJ      -0.072400
     28 C30          7.7310     0.8860    -0.7530 ca         1 GFJ       0.487200
     29 N31          8.1780    -0.0030    -1.6260 nb         1 GFJ      -0.619000
     30 C32          7.3780    -0.8860    -2.1960 ca         1 GFJ       0.437200
     31 C33          6.0340    -0.9220    -1.8990 ca         1 GFJ      -0.250300
     32 F34          5.9310     1.8300     0.4890 f          1 GFJ      -0.122900
     33 N35          8.6160     1.7950    -0.1800 nv         1 GFJ      -0.556500
     34 H1          -2.0980    -0.8550    -2.2530 hc         1 GFJ       0.019033
     35 H2          -2.1240     0.9120    -2.1570 hc         1 GFJ       0.019033
     36 H3          -2.5110    -0.0570    -0.7290 hc         1 GFJ       0.019033
     37 H4           2.2170     0.0040     5.6570 h5         1 GFJ       0.029100
     38 H5           0.3580     4.4790    -6.2580 ha         1 GFJ       0.128000
     39 H6           0.5020     4.5620    -3.8030 ha         1 GFJ       0.129000
     40 H7           0.5110    -2.1360    -3.6810 ha         1 GFJ       0.129000
     41 H8           0.3660    -2.0870    -6.1360 h4         1 GFJ      -0.010900
     42 H9           4.4190     0.0020     1.4790 ha         1 GFJ       0.106000
     43 H10          3.4290    -0.0000    -2.6950 ha         1 GFJ       0.109000
     44 H11          3.7310     0.0070     3.5350 hn         1 GFJ       0.138700
     45 H12          7.7870    -1.5970    -2.9040 h4         1 GFJ      -0.018900
     46 H13          5.3870    -1.6500    -2.3730 ha         1 GFJ       0.123000
     47 H14          9.5430     1.5060     0.0610 hn         1 GFJ       0.276800
     48 H15          8.3190     2.7320     0.0080 hn         1 GFJ       0.276800
     49 C22         -1.8960    -0.0000    -1.6190 c3         1 GFJ       0.012600
     50 F21          0.2730     2.3400    -7.7040 f          1 GFJ      -0.109900
@<TRIPOS>BOND
     1     1     2 1   
     2     1    17 2   
     3     2     3 ar  
     4     2    18 ar  
     5     3     5 1   
     6     3    19 ar  
     7     4    19 ar  
     8     4    20 ar  
     9     4    23 1   
    10     5    24 1   
    11     5    26 2   
    12     6    24 1   
    13     6    25 2   
    14     6    37 1   
    15     7     8 ar  
    16     7    11 ar  
    17     7    38 1   
    18     8    21 ar  
    19     8    39 1   
    20     9    10 ar  
    21     9    12 ar  
    22     9    21 ar  
    23    10    11 ar  
    24    10    15 ar  
    25    11    50 1   
    26    12    13 ar  
    27    12    16 1   
    28    13    14 ar  
    29    13    40 1   
    30    14    15 ar  
    31    14    41 1   
    32    16    17 1   
    33    16    18 1   
    34    17    49 1   
    35    18    20 ar  
    36    19    42 1   
    37    20    43 1   
    38    21    22 1   
    39    23    27 ar  
    40    23    31 ar  
    41    24    44 1   
    42    25    26 1   
    43    27    28 ar  
    44    27    32 1   
    45    28    29 ar  
    46    28    33 1   
    47    29    30 ar  
    48    30    31 ar  
    49    30    45 1   
    50    31    46 1   
    51    33    47 1   
    52    33    48 1   
    53    34    49 1   
    54    35    49 1   
    55    36    49 1   
@<TRIPOS>SUBSTRUCTURE
     1 GFJ         1 TEMP              0 ****  ****    0 ROOT
