@<TRIPOS>MOLECULE
GFM
   49    51     1     0     0
SMALL
bcc


@<TRIPOS>ATOM
      1 N1           0.0000     0.0000     0.0000 ns         1 GFM      -0.018400
      2 C2           1.3630     0.0000     0.0000 cc         1 GFM      -0.399200
      3 N2           2.0280     0.0000    -1.2000 nz         1 GFM       0.363400
      4 N3           2.0580     0.0000     1.1150 nd         1 GFM      -0.722100
      5 C4           1.4520    -0.0000     2.3080 cd         1 GFM       0.007800
      6 C5           0.0550    -0.0000     2.3750 cc         1 GFM      -0.053200
      7 C6          -0.6820    -0.0000     1.1670 c          1 GFM       0.604000
      8 O6          -1.9010     0.0000     1.1790 o          1 GFM      -0.817500
      9 N7          -0.2850    -0.0010     3.6870 nc         1 GFM      -0.529000
     10 C8           0.7950    -0.0010     4.4120 cd         1 GFM       0.131400
     11 N9           1.8940    -0.0010     3.6030 na         1 GFM       0.164100
     12 PA           4.5290    -1.6800     9.5330 p5         1 GFM       0.972800
     13 PB           4.4580    -4.3760    10.7630 p5         1 GFM       0.700600
     14 PG           4.8110    -7.2350    11.5160 p5         1 GFM       0.475700
     15 C1'          3.2930    -0.0010     4.0410 c3         1 GFM       0.185800
     16 O1A          5.6660    -0.9010    10.3650 o          1 GFM      -0.666000
     17 O1B          2.8710    -4.4330    11.0230 o          1 GFM      -0.445500
     18 O1G          3.2400    -7.4220    11.8110 o          1 GFM      -0.507500
     19 C2'          3.8300     1.4430     4.0780 c3         1 GFM      -0.117400
     20 O2A          3.1980    -1.3520    10.0890 o          1 GFM      -0.666000
     21 O2B          5.1530    -4.0210    12.0200 o          1 GFM      -0.445500
     22 O2G          5.4430    -8.6430    11.0580 o          1 GFM      -0.507500
     23 C3'          4.2770     1.6440     5.5460 c3         1 GFM       0.146100
     24 O3'          5.5130     2.3590     5.6100 oh         1 GFM      -0.586800
     25 O3A          4.7790    -3.2680     9.6400 os         1 GFM      -0.506800
     26 C3B          5.0380    -6.0070    10.1880 c3         1 GFM       0.575900
     27 F3B2         4.3020    -6.3940     9.0630 f          1 GFM      -0.202300
     28 C3B3         6.5210    -5.9210     9.8220 c3         1 GFM      -0.063100
     29 O3G          5.4920    -6.7650    12.7440 o          1 GFM      -0.507500
     30 C4'          4.4590     0.1840     6.0340 c3         1 GFM       0.152100
     31 O4'          3.3870    -0.5260     5.3750 os         1 GFM      -0.370600
     32 C5'          4.3060     0.1000     7.5530 c3         1 GFM       0.314400
     33 O5'          4.5910    -1.2300     7.9890 os         1 GFM      -0.502200
     34 HN1         -0.4980     0.0000    -0.8680 hn         1 GFM       0.100500
     35 HN2          1.8020     0.8330    -1.7060 hn         1 GFM       0.053133
     36 HN2A         3.0150    -0.0320    -1.0350 hn         1 GFM       0.053133
     37 H8           0.8180    -0.0000     5.4950 h5         1 GFM       0.019100
     38 H1'          3.8950    -0.5990     3.3690 h2         1 GFM       0.020700
     39 H2'          3.0450     2.1450     3.8230 hc         1 GFM       0.027200
     40 H2'A         4.6750     1.5490     3.4080 hc         1 GFM       0.027200
     41 H3'          3.5040     2.1440     6.1170 h1         1 GFM       0.016700
     42 HO3'         5.3400     3.2700     5.7850 ho         1 GFM       0.369000
     43 HC3B         6.8860    -6.9060     9.5600 hc         1 GFM       0.036367
     44 HC3A         6.6460    -5.2540     8.9770 hc         1 GFM       0.036367
     45 HC3C         7.0810    -5.5410    10.6680 hc         1 GFM       0.036367
     46 H4'          5.4200    -0.2040     5.7190 h1         1 GFM       0.020700
     47 H5'          4.9970     0.7890     8.0240 h1         1 GFM      -0.014800
     48 H5'A         3.2920     0.3610     7.8290 h1         1 GFM      -0.014800
     49 H23          1.7570    -0.8030    -1.7320 hn         1 GFM       0.053133
@<TRIPOS>BOND
     1     1     2 1   
     2     1     7 1   
     3     1    34 1   
     4     2     3 1   
     5     2     4 2   
     6     3    35 1   
     7     3    36 1   
     8     3    49 1   
     9     4     5 1   
    10     5     6 2   
    11     5    11 1   
    12     6     7 1   
    13     6     9 1   
    14     7     8 2   
    15     9    10 2   
    16    10    11 1   
    17    10    37 1   
    18    11    15 1   
    19    12    16 1   
    20    12    20 1   
    21    12    25 1   
    22    12    33 1   
    23    13    17 1   
    24    13    21 1   
    25    13    25 1   
    26    13    26 1   
    27    14    18 1   
    28    14    22 1   
    29    14    26 1   
    30    14    29 1   
    31    15    19 1   
    32    15    31 1   
    33    15    38 1   
    34    19    23 1   
    35    19    39 1   
    36    19    40 1   
    37    23    24 1   
    38    23    30 1   
    39    23    41 1   
    40    24    42 1   
    41    26    27 1   
    42    26    28 1   
    43    28    43 1   
    44    28    44 1   
    45    28    45 1   
    46    30    31 1   
    47    30    32 1   
    48    30    46 1   
    49    32    33 1   
    50    32    47 1   
    51    32    48 1   
@<TRIPOS>SUBSTRUCTURE
     1 GFM         1 TEMP              0 ****  ****    0 ROOT
