@<TRIPOS>MOLECULE
molecule
   48    51     1     0     0
SMALL
bcc


@<TRIPOS>ATOM
      1 C01          0.0000     0.0000     0.0000 c3         1 GFN      -0.090100
      2 C02          1.5300     0.0000     0.0000 c3         1 GFN       0.164500
      3 C03          2.0400     0.0000     1.4420 c3         1 GFN       0.164800
      4 N04          3.5100    -0.0400     1.4390 nh         1 GFN      -0.609000
      5 C05          4.0000    -1.2410     0.7480 c3         1 GFN       0.166800
      6 C06          3.4890    -1.2420    -0.6940 c3         1 GFN       0.158800
      7 N07          2.0200    -1.2010    -0.6910 n7         1 GFN      -0.818200
      8 C08          4.0150     0.0310     2.7390 ca         1 GFN       0.068600
      9 C09          3.6730    -0.9510     3.6700 ca         1 GFN       0.028900
     10 C10          4.1600    -0.8930     4.9460 ca         1 GFN      -0.077000
     11 C11          5.0060     0.1540     5.3210 ca         1 GFN      -0.183600
     12 C12          5.3590     1.1500     4.3920 ca         1 GFN       0.175600
     13 C13          4.8590     1.0760     3.0940 ca         1 GFN       0.068100
     14 O14          5.1920     2.0260     2.1780 os         1 GFN      -0.338900
     15 C15          4.3430     3.1730     2.0950 c3         1 GFN       0.128700
     16 N16          6.1940     2.1840     4.7640 na         1 GFN      -0.470800
     17 C17          6.7030     2.2970     5.9970 cc         1 GFN       0.046000
     18 C18          6.4280     1.3810     6.9920 cd         1 GFN      -0.254400
     19 C19          5.5460     0.2420     6.6880 c          1 GFN       0.568900
     20 O20          5.2730    -0.5920     7.5330 o          1 GFN      -0.496100
     21 C21          7.0070     1.5400     8.3330 c          1 GFN       0.895800
     22 O22          7.7340     2.4830     8.5740 o          1 GFN      -0.826800
     23 O23          6.7310     0.6380     9.2970 o          1 GFN      -0.826800
     24 C24          6.5380     3.2010     3.7670 cx         1 GFN       0.140500
     25 C25          7.4930     4.3170     4.1970 cx         1 GFN      -0.160900
     26 C26          6.0060     4.6180     3.9910 cx         1 GFN      -0.160900
     27 F27          2.8550    -1.9630     3.3080 f          1 GFN      -0.151900
     28 H011        -0.3610     0.8170     0.6130 hc         1 GFN       0.037367
     29 H012        -0.3610    -0.9390     0.4010 hc         1 GFN       0.037367
     30 H013        -0.3610     0.1220    -1.0140 hc         1 GFN       0.037367
     31 H021         1.8960     0.8830    -0.5110 h1         1 GFN       0.027700
     32 H032         1.7050     0.9000     1.9420 h1         1 GFN       0.053200
     33 H031         1.6570    -0.8710     1.9590 h1         1 GFN       0.053200
     34 H051         3.6360    -2.1240     1.2600 h1         1 GFN       0.054200
     35 H052         5.0830    -1.2390     0.7470 h1         1 GFN       0.054200
     36 H062         3.8720    -0.3710    -1.2120 h1         1 GFN       0.034200
     37 H061         3.8230    -2.1420    -1.1950 h1         1 GFN       0.034200
     38 H071         1.6840    -1.2050    -1.6340 hn         1 GFN       0.344800
     39 H101         3.8910    -1.6570     5.6650 ha         1 GFN       0.168000
     40 H151         3.5440     2.9800     1.3880 h1         1 GFN       0.033367
     41 H153         4.9210     4.0260     1.7620 h1         1 GFN       0.033367
     42 H152         3.9200     3.3800     3.0700 h1         1 GFN       0.033367
     43 H171         7.3530     3.1340     6.2210 h4         1 GFN       0.181000
     44 H241         6.6230     2.9070     2.7270 h1         1 GFN       0.140700
     45 H252         7.8230     4.2780     5.2280 hc         1 GFN       0.081950
     46 H251         8.1560     4.6880     3.4250 hc         1 GFN       0.081950
     47 H262         5.4290     4.7630     4.8960 hc         1 GFN       0.081950
     48 H261         5.7620     5.1730     3.0930 hc         1 GFN       0.081950
@<TRIPOS>BOND
     1     1     2 1
     2     7     2 1
     3     7     6 1
     4     2     3 1
     5     6     5 1
     6     3     4 1
     7    15    14 1
     8     5     4 1
     9    14    13 1
    10    25    24 1
    11    25    26 1
    12     4     8 1
    13    24    26 1
    14    24    16 1
    15    13     8 ar
    16    13    12 ar
    17     8     9 ar
    18    16    12 1
    19    16    17 1
    20    12    11 ar
    21     9    27 1
    22     9    10 ar
    23    17    18 2
    24    11    10 ar
    25    11    19 1
    26    18    19 1
    27    18    21 1
    28    19    20 2
    29    22    21 1
    30    21    23 1
    31     1    28 1
    32     1    29 1
    33     1    30 1
    34     2    31 1
    35     3    32 1
    36     3    33 1
    37     5    34 1
    38     5    35 1
    39     6    36 1
    40     6    37 1
    41     7    38 1
    42    10    39 1
    43    15    40 1
    44    15    41 1
    45    15    42 1
    46    17    43 1
    47    24    44 1
    48    25    45 1
    49    25    46 1
    50    26    47 1
    51    26    48 1
@<TRIPOS>SUBSTRUCTURE
     1 GFN         1 TEMP              0 ****  ****    0 ROOT
