@<TRIPOS>MOLECULE
GFN
   48    51     1     0     0
SMALL
bcc


@<TRIPOS>ATOM
      1 C01          0.0000     0.0000     0.0000 c3         1 GFN       0.005900
      2 C02          1.5300     0.0000     0.0000 c3         1 GFN       0.119500
      3 C03          2.0400     0.0000     1.4420 c3         1 GFN       0.130800
      4 N04          3.5100    -0.0400     1.4390 nh         1 GFN      -0.389000
      5 C05          4.0000    -1.2410     0.7480 c3         1 GFN       0.137800
      6 C06          3.4890    -1.2420    -0.6940 c3         1 GFN       0.149800
      7 N07          2.0200    -1.2010    -0.6910 n7         1 GFN      -0.582200
      8 C08          4.0150     0.0310     2.7390 ca         1 GFN       0.000600
      9 C09          3.6730    -0.9510     3.6700 ca         1 GFN      -0.001100
     10 C10          4.1600    -0.8930     4.9460 ca         1 GFN      -0.033000
     11 C11          5.0060     0.1540     5.3210 ca         1 GFN      -0.187600
     12 C12          5.3590     1.1500     4.3920 ca         1 GFN       0.008600
     13 C13          4.8590     1.0760     3.0940 ca         1 GFN       0.072100
     14 O14          5.1920     2.0260     2.1780 os         1 GFN      -0.316900
     15 C15          4.3430     3.1730     2.0950 c3         1 GFN       0.224700
     16 N16          6.1940     2.1840     4.7640 na         1 GFN       0.019200
     17 C17          6.7030     2.2970     5.9970 cc         1 GFN      -0.139000
     18 C18          6.4280     1.3810     6.9920 cd         1 GFN      -0.228400
     19 C19          5.5460     0.2420     6.6880 c          1 GFN       0.610900
     20 O20          5.2730    -0.5920     7.5330 o          1 GFN      -0.521100
     21 C21          7.0070     1.5400     8.3330 c          1 GFN       0.981800
     22 O22          7.7340     2.4830     8.5740 o          1 GFN      -0.873800
     23 O23          6.7310     0.6380     9.2970 o          1 GFN      -0.873800
     24 C24          6.5380     3.2010     3.7670 cx         1 GFN      -0.019500
     25 C25          7.4930     4.3170     4.1970 cx         1 GFN      -0.098900
     26 C26          6.0060     4.6180     3.9910 cx         1 GFN      -0.098900
     27 F27          2.8550    -1.9630     3.3080 f          1 GFN      -0.134900
     28 H011        -0.3610     0.8170     0.6130 hc         1 GFN       0.004367
     29 H012        -0.3610    -0.9390     0.4010 hc         1 GFN       0.004367
     30 H013        -0.3610     0.1220    -1.0140 hc         1 GFN       0.004367
     31 H021         1.8960     0.8830    -0.5110 h1         1 GFN       0.009700
     32 H032         1.7050     0.9000     1.9420 h1         1 GFN       0.029200
     33 H031         1.6570    -0.8710     1.9590 h1         1 GFN       0.029200
     34 H051         3.6360    -2.1240     1.2600 h1         1 GFN       0.027700
     35 H052         5.0830    -1.2390     0.7470 h1         1 GFN       0.027700
     36 H062         3.8720    -0.3710    -1.2120 h1         1 GFN       0.006200
     37 H061         3.8230    -2.1420    -1.1950 h1         1 GFN       0.006200
     38 H071         1.6840    -1.2050    -1.6340 hn         1 GFN       0.245800
     39 H101         3.8910    -1.6570     5.6650 ha         1 GFN       0.137000
     40 H151         3.5440     2.9800     1.3880 h1         1 GFN      -0.003300
     41 H153         4.9210     4.0260     1.7620 h1         1 GFN      -0.003300
     42 H152         3.9200     3.3800     3.0700 h1         1 GFN      -0.003300
     43 H171         7.3530     3.1340     6.2210 h4         1 GFN       0.164000
     44 H241         6.6230     2.9070     2.7270 h1         1 GFN       0.125700
     45 H252         7.8230     4.2780     5.2280 hc         1 GFN       0.056450
     46 H251         8.1560     4.6880     3.4250 hc         1 GFN       0.056450
     47 H262         5.4290     4.7630     4.8960 hc         1 GFN       0.056450
     48 H261         5.7620     5.1730     3.0930 hc         1 GFN       0.056450
@<TRIPOS>BOND
     1     1     2 1   
     2     1    28 1   
     3     1    29 1   
     4     1    30 1   
     5     2     3 1   
     6     2     7 1   
     7     2    31 1   
     8     3     4 1   
     9     3    32 1   
    10     3    33 1   
    11     4     5 1   
    12     4     8 1   
    13     5     6 1   
    14     5    34 1   
    15     5    35 1   
    16     6     7 1   
    17     6    36 1   
    18     6    37 1   
    19     7    38 1   
    20     8     9 ar  
    21     8    13 ar  
    22     9    10 ar  
    23     9    27 1   
    24    10    11 ar  
    25    10    39 1   
    26    11    12 ar  
    27    11    19 1   
    28    12    13 ar  
    29    12    16 1   
    30    13    14 1   
    31    14    15 1   
    32    15    40 1   
    33    15    41 1   
    34    15    42 1   
    35    16    17 1   
    36    16    24 1   
    37    17    18 2   
    38    17    43 1   
    39    18    19 1   
    40    18    21 1   
    41    19    20 2   
    42    21    22 1   
    43    21    23 1   
    44    24    25 1   
    45    24    26 1   
    46    24    44 1   
    47    25    26 1   
    48    25    45 1   
    49    25    46 1   
    50    26    47 1   
    51    26    48 1   
@<TRIPOS>SUBSTRUCTURE
     1 GFN         1 TEMP              0 ****  ****    0 ROOT
