@<TRIPOS>MOLECULE
GFQ
   49    50     1     0     0
SMALL
bcc


@<TRIPOS>ATOM
      1 C4           0.0000     0.0000     0.0000 c3         1 GFQ      -0.025400
      2 C14          6.9880     4.3630     1.5340 ca         1 GFQ      -0.061000
      3 C5           1.5300     0.0000     0.0000 c3         1 GFQ      -0.036400
      4 C6           2.0400     0.0000     1.4420 c3         1 GFQ      -0.036700
      5 C11          7.9280     1.7520     1.3390 ca         1 GFQ      -0.095000
      6 C7           3.5470    -0.0010     1.4420 cc         1 GFQ       0.439700
      7 C8           5.5950     0.8820     1.4460 cd         1 GFQ       0.383800
      8 C9           5.9760    -0.4130     1.4420 cc         1 GFQ      -0.112400
      9 C10          6.5590     2.0060     1.4470 ca         1 GFQ      -0.101500
     10 C12          8.8200     2.7920     1.3380 ca         1 GFQ      -0.061000
     11 C13          8.3590     4.1090     1.4310 ca         1 GFQ      -0.156600
     12 N1           4.2810     1.0570     1.4470 nd         1 GFQ      -0.556000
     13 N2           8.8730     6.4990     1.5080 ns         1 GFQ      -0.205900
     14 C3          -2.0350    -0.1260    -1.4440 c3         1 GFQ       0.003900
     15 C1          -0.1050     1.3080    -2.1270 c3         1 GFQ       0.003900
     16 C2          -0.5100     0.0000    -1.4420 c3         1 GFQ      -0.053700
     17 S1           4.5210    -1.4050     1.4430 ss         1 GFQ      -0.297300
     18 C15          6.0980     3.3200     1.5440 ca         1 GFQ      -0.095000
     19 C16          9.3180     5.2300     1.4180 c          1 GFQ       0.600700
     20 O1          10.5100     5.0090     1.3290 o          1 GFQ      -0.642100
     21 C17          9.8260     7.6120     1.4950 c3         1 GFQ       0.053000
     22 C18          9.0660     8.9350     1.6070 c3         1 GFQ      -0.105400
     23 C19         10.0600    10.0970     1.5960 c3         1 GFQ       0.577900
     24 F1           9.3650    11.3070     1.6980 f          1 GFQ      -0.205633
     25 F2          10.9390     9.9720     2.6770 f          1 GFQ      -0.205633
     26 F3          10.7860    10.0780     0.4000 f          1 GFQ      -0.205633
     27 H1          -0.3610     0.8840     0.5110 hc         1 GFQ       0.017200
     28 H2          -0.3610    -0.8850     0.5110 hc         1 GFQ       0.017200
     29 H3           6.6300     5.3830     1.6070 ha         1 GFQ       0.114500
     30 H4           1.8910    -0.8850    -0.5110 hc         1 GFQ       0.025200
     31 H5           1.8910     0.8840    -0.5110 hc         1 GFQ       0.025200
     32 H6           1.6790     0.8850     1.9530 hc         1 GFQ       0.030200
     33 H7           1.6780    -0.8840     1.9530 hc         1 GFQ       0.030200
     34 H8           8.2850     0.7320     1.2670 ha         1 GFQ       0.118500
     35 H9           6.9960    -0.7780     1.4420 h4         1 GFQ       0.166000
     36 H10          9.8820     2.5950     1.2570 ha         1 GFQ       0.114500
     37 H11          7.8920     6.6810     1.5830 hn         1 GFQ       0.181500
     38 H12         -2.4680     0.7190    -0.9230 hc         1 GFQ       0.003700
     39 H13         -2.3230    -1.0430    -0.9460 hc         1 GFQ       0.003700
     40 H14         -2.3950    -0.1420    -2.4660 hc         1 GFQ       0.003700
     41 H15         -0.1390     2.1170    -1.4080 hc         1 GFQ       0.003700
     42 H16          0.9010     1.2140    -2.5180 hc         1 GFQ       0.003700
     43 H17         -0.7900     1.5170    -2.9400 hc         1 GFQ       0.003700
     44 H18         -0.0780    -0.8370    -1.9780 hc         1 GFQ       0.026700
     45 H19          5.0360     3.5170     1.6260 ha         1 GFQ       0.118500
     46 H20         10.3880     7.5960     0.5690 h1         1 GFQ       0.041700
     47 H21         10.5060     7.5150     2.3320 h1         1 GFQ       0.041700
     48 H22          8.5030     8.9510     2.5330 hc         1 GFQ       0.051700
     49 H23          8.3860     9.0330     0.7700 hc         1 GFQ       0.051700
@<TRIPOS>BOND
     1     1     3 1   
     2     1    16 1   
     3     1    27 1   
     4     1    28 1   
     5     2    11 ar  
     6     2    18 ar  
     7     2    29 1   
     8     3     4 1   
     9     3    30 1   
    10     3    31 1   
    11     4     6 1   
    12     4    32 1   
    13     4    33 1   
    14     5     9 ar  
    15     5    10 ar  
    16     5    34 1   
    17     6    12 2   
    18     6    17 1   
    19     7     8 2   
    20     7     9 1   
    21     7    12 1   
    22     8    17 1   
    23     8    35 1   
    24     9    18 ar  
    25    10    11 ar  
    26    10    36 1   
    27    11    19 1   
    28    13    19 1   
    29    13    21 1   
    30    13    37 1   
    31    14    16 1   
    32    14    38 1   
    33    14    39 1   
    34    14    40 1   
    35    15    16 1   
    36    15    41 1   
    37    15    42 1   
    38    15    43 1   
    39    16    44 1   
    40    18    45 1   
    41    19    20 2   
    42    21    22 1   
    43    21    46 1   
    44    21    47 1   
    45    22    23 1   
    46    22    48 1   
    47    22    49 1   
    48    23    24 1   
    49    23    25 1   
    50    23    26 1   
@<TRIPOS>SUBSTRUCTURE
     1 GFQ         1 TEMP              0 ****  ****    0 ROOT
