@<TRIPOS>MOLECULE
molecule
   50    51     1     0     0
SMALL
bcc


@<TRIPOS>ATOM
      1 C4           0.0000     0.0000     0.0000 c3         1 GFW      -0.144700
      2 C14          8.4760    -2.4190     4.8630 c3         1 GFW       0.231800
      3 C5           1.5070     0.0000     0.0000 cc         1 GFW       0.456700
      4 C6           3.5550    -0.0000     0.8820 cd         1 GFW       0.418800
      5 C11          6.3230     0.0110     4.1090 ca         1 GFW      -0.312500
      6 C7           3.9360    -0.0020    -0.4120 cc         1 GFW      -0.169400
      7 C8           4.5210     0.0040     2.0070 ca         1 GFW      -0.061500
      8 C9           4.0620     0.0060     3.3230 ca         1 GFW      -0.132000
      9 C10          4.9640     0.0100     4.3670 ca         1 GFW      -0.031500
     10 C12          6.7850     0.0090     2.8060 ca         1 GFW      -0.031500
     11 C13          5.8910     0.0050     1.7540 ca         1 GFW      -0.132000
     12 N1           2.2410     0.0000     1.0570 nd         1 GFW      -0.664000
     13 N2           7.7920    -1.5560     5.8290 n7         1 GFW      -0.916100
     14 C3          -0.5030     1.4210    -0.0060 c          1 GFW       0.631100
     15 C1          -3.7620     3.1380    -0.0130 c3         1 GFW      -0.096100
     16 O1          -1.8220     1.6650    -0.0070 os         1 GFW      -0.431900
     17 O2           0.2820     2.3400    -0.0110 o          1 GFW      -0.533000
     18 S1           2.4810    -0.0070    -1.4050 ss         1 GFW      -0.171300
     19 O3           8.6790     0.5670     4.9340 o          1 GFW      -0.636800
     20 O4           6.7810     0.5740     6.5610 o          1 GFW      -0.636800
     21 C15          8.9810    -3.6770     5.5710 c3         1 GFW      -0.085400
     22 C16          9.6950    -4.5790     4.5620 c3         1 GFW      -0.076700
     23 C17         10.3090    -5.7760     5.2910 c3         1 GFW      -0.089600
     24 C18          8.6880    -5.0770     3.5230 c3         1 GFW      -0.089600
     25 H1          -0.3610    -0.5070     0.8870 hc         1 GFW       0.093200
     26 H2          -0.3610    -0.5150    -0.8820 hc         1 GFW       0.093200
     27 H3           9.3150    -1.8860     4.4320 h1         1 GFW       0.048200
     28 H4           7.7850    -2.7000     4.0770 h1         1 GFW       0.048200
     29 H5           4.9560    -0.0040    -0.7760 h4         1 GFW       0.185000
     30 H6           2.9970     0.0050     3.5260 ha         1 GFW       0.147000
     31 H7           4.6070     0.0110     5.3900 ha         1 GFW       0.151500
     32 H8           7.8500     0.0100     2.6100 ha         1 GFW       0.151500
     33 H9           6.2540     0.0040     0.7330 ha         1 GFW       0.147000
     34 H10          7.5340    -1.9160     6.7270 hn         1 GFW       0.455800
     35 H11         -4.1500     2.6420    -0.8950 hc         1 GFW       0.048033
     36 H12         -4.1570     2.6570     0.8740 hc         1 GFW       0.048033
     37 H13         -4.0610     4.1790    -0.0220 hc         1 GFW       0.048033
     38 H14         -1.8480     3.5450    -0.9000 h1         1 GFW       0.051200
     39 H15         -1.8470     3.5530     0.8690 h1         1 GFW       0.051200
     40 H16          9.6730    -3.3970     6.3570 hc         1 GFW       0.049700
     41 H17          8.1430    -4.2110     6.0020 hc         1 GFW       0.049700
     42 H18         10.4780    -4.0170     4.0660 hc         1 GFW       0.053700
     43 H19         10.9860    -5.4220     6.0590 hc         1 GFW       0.035700
     44 H20         10.8540    -6.3890     4.5840 hc         1 GFW       0.035700
     45 H21          9.5210    -6.3640     5.7460 hc         1 GFW       0.035700
     46 H22          8.6170    -4.3580     2.7150 hc         1 GFW       0.035700
     47 H23          7.7170    -5.1930     3.9880 hc         1 GFW       0.035700
     48 H24          9.0170    -6.0310     3.1300 hc         1 GFW       0.035700
     49 S2           7.4690     0.0230     5.4470 sy         1 GFW       1.422200
     50 C2          -2.2350     3.0580    -0.0130 c3         1 GFW       0.147400
@<TRIPOS>BOND
     1    23    22 1
     2    19    49 2
     3    22    24 1
     4    22    21 1
     5    10    11 ar
     6    10     5 ar
     7    21     2 1
     8    49    20 2
     9    49    13 1
    10    49     5 1
    11    11     7 ar
    12    13     2 1
    13     5     9 ar
    14    17    14 2
    15     1    14 1
    16     1     3 1
    17    12     3 2
    18    12     4 1
    19     7     4 1
    20     7     8 ar
    21    14    16 1
    22     9     8 ar
    23    15    50 1
    24     3    18 1
    25     4     6 2
    26    16    50 1
    27     6    18 1
    28     1    25 1
    29     1    26 1
    30     2    27 1
    31     2    28 1
    32     6    29 1
    33     8    30 1
    34     9    31 1
    35    10    32 1
    36    11    33 1
    37    13    34 1
    38    15    35 1
    39    15    36 1
    40    15    37 1
    41    50    38 1
    42    50    39 1
    43    21    40 1
    44    21    41 1
    45    22    42 1
    46    23    43 1
    47    23    44 1
    48    23    45 1
    49    24    46 1
    50    24    47 1
    51    24    48 1
@<TRIPOS>SUBSTRUCTURE
     1 GFW         1 TEMP              0 ****  ****    0 ROOT
