@<TRIPOS>MOLECULE
GFZ
   64    68     1     0     0
SMALL
bcc


@<TRIPOS>ATOM
      1 C4           0.0000     0.0000     0.0000 c3         1 GFZ       0.144800
      2 C14          1.8700    -2.5800     5.4490 ca         1 GFZ      -0.027000
      3 C5           1.5310     0.0000     0.0000 c3         1 GFZ      -0.040900
      4 C6           2.0370     0.0000     1.4440 c3         1 GFZ       0.166800
      5 C11          3.2880    -0.8650     3.7920 ca         1 GFZ      -0.275600
      6 C7           1.4710     1.2170     2.1790 c3         1 GFZ      -0.040900
      7 C8          -0.0570     1.1810     2.1160 c3         1 GFZ       0.144800
      8 C9           3.5700     0.0750     1.4450 c3         1 GFZ      -0.152400
      9 C10          4.0170     0.0480     2.8960 c          1 GFZ       0.640700
     10 C12          3.7700    -1.1420     5.0700 ca         1 GFZ       0.008000
     11 C13          3.0590    -2.0020     5.9000 cp         1 GFZ      -0.099000
     12 N1          -0.4910     1.1860     0.7120 n3         1 GFZ      -0.539600
     13 N2           6.1510    -2.6110    11.5970 ns         1 GFZ      -0.034100
     14 C3          -2.4240     2.5390     1.3650 c3         1 GFZ      -0.004600
     15 C1          -2.3570     1.4020    -0.8590 c3         1 GFZ      -0.004600
     16 C2          -1.9520     1.2940     0.6120 c3         1 GFZ       0.130500
     17 O1           4.9270     0.7440     3.2950 o          1 GFZ      -0.554100
     18 C15          1.3940    -2.3080     4.1860 ca         1 GFZ      -0.159000
     19 C16          2.0920    -1.4530     3.3430 ca         1 GFZ       0.206100
     20 O2           1.6190    -1.1950     2.1010 os         1 GFZ      -0.297900
     21 C17          3.5630    -2.3040     7.2620 cp         1 GFZ       0.006000
     22 C18          2.8480    -3.1680     8.0930 ca         1 GFZ      -0.116500
     23 C19          3.3140    -3.4490     9.3570 ca         1 GFZ      -0.050500
     24 C20          4.5030    -2.8690     9.8080 ca         1 GFZ      -0.167600
     25 C21          5.2180    -2.0050     8.9740 ca         1 GFZ      -0.050500
     26 C22          4.7520    -1.7300     7.7080 ca         1 GFZ      -0.116500
     27 C23          5.0040    -3.1700    11.1630 c          1 GFZ       0.587700
     28 O3           4.3810    -3.9220    11.8890 o          1 GFZ      -0.640100
     29 C24          6.5750    -2.8180    12.9140 ca         1 GFZ      -0.093400
     30 C25          6.3410    -4.0380    13.5380 ca         1 GFZ      -0.117500
     31 C26          6.7610    -4.2380    14.8370 ca         1 GFZ      -0.084500
     32 C27          7.4150    -3.2270    15.5190 ca         1 GFZ      -0.114000
     33 C28          7.6490    -2.0120    14.9020 ca         1 GFZ      -0.084500
     34 C29          7.2360    -1.8070    13.6000 ca         1 GFZ      -0.117500
     35 H1          -0.3590     0.0200    -1.0220 h1         1 GFZ       0.020450
     36 H2          -0.3600    -0.8930     0.4980 h1         1 GFZ       0.020450
     37 H3           1.3190    -3.2500     6.0990 ha         1 GFZ       0.113000
     38 H4           1.8910     0.8860    -0.5080 hc         1 GFZ       0.034950
     39 H5           1.8910    -0.8860    -0.5080 hc         1 GFZ       0.034950
     40 H6           1.8300     2.1230     1.7050 hc         1 GFZ       0.034950
     41 H7           1.7910     1.1940     3.2140 hc         1 GFZ       0.034950
     42 H8          -0.4160     0.2800     2.6000 h1         1 GFZ       0.020450
     43 H9          -0.4590     2.0520     2.6200 h1         1 GFZ       0.020450
     44 H10          3.9810    -0.7770     0.9180 hc         1 GFZ       0.053200
     45 H11          3.8940     0.9970     0.9780 hc         1 GFZ       0.053200
     46 H12          4.6930    -0.6910     5.4140 ha         1 GFZ       0.128000
     47 H14          6.7160    -2.0760    10.9680 hn         1 GFZ       0.172500
     48 H15         -2.4680     2.3250     2.4260 hc         1 GFZ       0.009867
     49 H16         -3.4090     2.8220     1.0130 hc         1 GFZ       0.009867
     50 H17         -1.7310     3.3530     1.1890 hc         1 GFZ       0.009867
     51 H18         -2.3680     0.4150    -1.3040 hc         1 GFZ       0.009867
     52 H19         -3.3440     1.8420    -0.9300 hc         1 GFZ       0.009867
     53 H20         -1.6440     2.0270    -1.3840 hc         1 GFZ       0.009867
     54 H21         -2.4090     0.4140     1.0480 h1         1 GFZ       0.006700
     55 H22          0.4700    -2.7630     3.8480 ha         1 GFZ       0.121000
     56 H23          1.9260    -3.6170     7.7440 ha         1 GFZ       0.116500
     57 H24          2.7590    -4.1190    10.0030 ha         1 GFZ       0.114500
     58 H25          6.1410    -1.5570     9.3220 ha         1 GFZ       0.114500
     59 H26          5.3060    -1.0600     7.0620 ha         1 GFZ       0.116500
     60 H27          5.8290    -4.8300    13.0050 ha         1 GFZ       0.124500
     61 H28          6.5790    -5.1890    15.3240 ha         1 GFZ       0.103000
     62 H29          7.7410    -3.3870    16.5390 ha         1 GFZ       0.102000
     63 H30          8.1630    -1.2230    15.4370 ha         1 GFZ       0.103000
     64 H31          7.4200    -0.8550    13.1160 ha         1 GFZ       0.124500
@<TRIPOS>BOND
     1     1     3 1   
     2     1    12 1   
     3     1    35 1   
     4     1    36 1   
     5     2    11 ar  
     6     2    18 ar  
     7     2    37 1   
     8     3     4 1   
     9     3    38 1   
    10     3    39 1   
    11     4     6 1   
    12     4     8 1   
    13     4    20 1   
    14     5     9 1   
    15     5    10 ar  
    16     5    19 ar  
    17     6     7 1   
    18     6    40 1   
    19     6    41 1   
    20     7    12 1   
    21     7    42 1   
    22     7    43 1   
    23     8     9 1   
    24     8    44 1   
    25     8    45 1   
    26     9    17 2   
    27    10    11 ar  
    28    10    46 1   
    29    11    21 1   
    30    12    16 1   
    31    13    27 1   
    32    13    29 1   
    33    13    47 1   
    34    14    16 1   
    35    14    48 1   
    36    14    49 1   
    37    14    50 1   
    38    15    16 1   
    39    15    51 1   
    40    15    52 1   
    41    15    53 1   
    42    16    54 1   
    43    18    19 ar  
    44    18    55 1   
    45    19    20 1   
    46    21    22 ar  
    47    21    26 ar  
    48    22    23 ar  
    49    22    56 1   
    50    23    24 ar  
    51    23    57 1   
    52    24    25 ar  
    53    24    27 1   
    54    25    26 ar  
    55    25    58 1   
    56    26    59 1   
    57    27    28 2   
    58    29    30 ar  
    59    29    34 ar  
    60    30    31 ar  
    61    30    60 1   
    62    31    32 ar  
    63    31    61 1   
    64    32    33 ar  
    65    32    62 1   
    66    33    34 ar  
    67    33    63 1   
    68    34    64 1   
@<TRIPOS>SUBSTRUCTURE
     1 GFZ         1 TEMP              0 ****  ****    0 ROOT
