@<TRIPOS>MOLECULE
molecule
   64    68     1     0     0
SMALL
bcc


@<TRIPOS>ATOM
      1 C4           0.0000     0.0000     0.0000 c3         1 GFZ       0.162300
      2 C14          1.8700    -2.5800     5.4490 ca         1 GFZ      -0.055000
      3 C5           1.5310     0.0000     0.0000 c3         1 GFZ      -0.083400
      4 C6           2.0370     0.0000     1.4440 c3         1 GFZ       0.158800
      5 C11          3.2880    -0.8650     3.7920 ca         1 GFZ      -0.260600
      6 C7           1.4710     1.2170     2.1790 c3         1 GFZ      -0.083400
      7 C8          -0.0570     1.1810     2.1160 c3         1 GFZ       0.162300
      8 C9           3.5700     0.0750     1.4450 c3         1 GFZ      -0.204400
      9 C10          4.0170     0.0480     2.8960 c          1 GFZ       0.585700
     10 C12          3.7700    -1.1420     5.0700 ca         1 GFZ      -0.023000
     11 C13          3.0590    -2.0020     5.9000 cp         1 GFZ      -0.097000
     12 N1          -0.4910     1.1860     0.7120 n3         1 GFZ      -0.731600
     13 N2           6.1510    -2.6110    11.5970 ns         1 GFZ      -0.475100
     14 C3          -2.4240     2.5390     1.3650 c3         1 GFZ      -0.091600
     15 C1          -2.3570     1.4020    -0.8590 c3         1 GFZ      -0.091600
     16 C2          -1.9520     1.2940     0.6120 c3         1 GFZ       0.169500
     17 O1           4.9270     0.7440     3.2950 o          1 GFZ      -0.521100
     18 C15          1.3940    -2.3080     4.1860 ca         1 GFZ      -0.175000
     19 C16          2.0920    -1.4530     3.3430 ca         1 GFZ       0.194100
     20 O2           1.6190    -1.1950     2.1010 os         1 GFZ      -0.321900
     21 C17          3.5630    -2.3040     7.2620 cp         1 GFZ       0.001000
     22 C18          2.8480    -3.1680     8.0930 ca         1 GFZ      -0.136000
     23 C19          3.3140    -3.4490     9.3570 ca         1 GFZ      -0.079000
     24 C20          4.5030    -2.8690     9.8080 ca         1 GFZ      -0.154600
     25 C21          5.2180    -2.0050     8.9740 ca         1 GFZ      -0.079000
     26 C22          4.7520    -1.7300     7.7080 ca         1 GFZ      -0.136000
     27 C23          5.0040    -3.1700    11.1630 c          1 GFZ       0.676700
     28 O3           4.3810    -3.9220    11.8890 o          1 GFZ      -0.597100
     29 C24          6.5750    -2.8180    12.9140 ca         1 GFZ       0.052600
     30 C25          6.3410    -4.0380    13.5380 ca         1 GFZ      -0.143000
     31 C26          6.7610    -4.2380    14.8370 ca         1 GFZ      -0.113500
     32 C27          7.4150    -3.2270    15.5190 ca         1 GFZ      -0.144000
     33 C28          7.6490    -2.0120    14.9020 ca         1 GFZ      -0.113500
     34 C29          7.2360    -1.8070    13.6000 ca         1 GFZ      -0.143000
     35 H1          -0.3590     0.0200    -1.0220 h1         1 GFZ       0.043950
     36 H2          -0.3600    -0.8930     0.4980 h1         1 GFZ       0.043950
     37 H3           1.3190    -3.2500     6.0990 ha         1 GFZ       0.142000
     38 H4           1.8910     0.8860    -0.5080 hc         1 GFZ       0.063950
     39 H5           1.8910    -0.8860    -0.5080 hc         1 GFZ       0.063950
     40 H6           1.8300     2.1230     1.7050 hc         1 GFZ       0.063950
     41 H7           1.7910     1.1940     3.2140 hc         1 GFZ       0.063950
     42 H8          -0.4160     0.2800     2.6000 h1         1 GFZ       0.043950
     43 H9          -0.4590     2.0520     2.6200 h1         1 GFZ       0.043950
     44 H10          3.9810    -0.7770     0.9180 hc         1 GFZ       0.084700
     45 H11          3.8940     0.9970     0.9780 hc         1 GFZ       0.084700
     46 H12          4.6930    -0.6910     5.4140 ha         1 GFZ       0.156000
     47 H14          6.7160    -2.0760    10.9680 hn         1 GFZ       0.325500
     48 H15         -2.4680     2.3250     2.4260 hc         1 GFZ       0.040200
     49 H16         -3.4090     2.8220     1.0130 hc         1 GFZ       0.040200
     50 H17         -1.7310     3.3530     1.1890 hc         1 GFZ       0.040200
     51 H18         -2.3680     0.4150    -1.3040 hc         1 GFZ       0.040200
     52 H19         -3.3440     1.8420    -0.9300 hc         1 GFZ       0.040200
     53 H20         -1.6440     2.0270    -1.3840 hc         1 GFZ       0.040200
     54 H21         -2.4090     0.4140     1.0480 h1         1 GFZ       0.023700
     55 H22          0.4700    -2.7630     3.8480 ha         1 GFZ       0.149000
     56 H23          1.9260    -3.6170     7.7440 ha         1 GFZ       0.139500
     57 H24          2.7590    -4.1190    10.0030 ha         1 GFZ       0.142500
     58 H25          6.1410    -1.5570     9.3220 ha         1 GFZ       0.142500
     59 H26          5.3060    -1.0600     7.0620 ha         1 GFZ       0.139500
     60 H27          5.8290    -4.8300    13.0050 ha         1 GFZ       0.146500
     61 H28          6.5790    -5.1890    15.3240 ha         1 GFZ       0.131500
     62 H29          7.7410    -3.3870    16.5390 ha         1 GFZ       0.129000
     63 H30          8.1630    -1.2230    15.4370 ha         1 GFZ       0.131500
     64 H31          7.4200    -0.8550    13.1160 ha         1 GFZ       0.146500
@<TRIPOS>BOND
     1    33    34 ar
     2    33    32 ar
     3    28    27 2
     4    34    29 ar
     5    32    31 ar
     6    25    26 ar
     7    25    24 ar
     8    27    13 1
     9    27    24 1
    10    29    13 1
    11    29    30 ar
    12    26    21 ar
    13    24    23 ar
    14    31    30 ar
    15    17     9 2
    16     9     5 1
    17     9     8 1
    18     3     1 1
    19     3     4 1
    20    10     5 ar
    21    10    11 ar
    22    21    11 1
    23    21    22 ar
    24    23    22 ar
    25     1    12 1
    26     5    19 ar
    27    11     2 ar
    28     8     4 1
    29    12    16 1
    30    12     7 1
    31     4    20 1
    32     4     6 1
    33    16    14 1
    34    16    15 1
    35    19    20 1
    36    19    18 ar
    37     2    18 ar
    38     6     7 1
    39     1    35 1
    40     1    36 1
    41     2    37 1
    42     3    38 1
    43     3    39 1
    44     6    40 1
    45     6    41 1
    46     7    42 1
    47     7    43 1
    48     8    44 1
    49     8    45 1
    50    10    46 1
    51    13    47 1
    52    14    48 1
    53    14    49 1
    54    14    50 1
    55    15    51 1
    56    15    52 1
    57    15    53 1
    58    16    54 1
    59    18    55 1
    60    22    56 1
    61    23    57 1
    62    25    58 1
    63    26    59 1
    64    30    60 1
    65    31    61 1
    66    32    62 1
    67    33    63 1
    68    34    64 1
@<TRIPOS>SUBSTRUCTURE
     1 GFZ         1 TEMP              0 ****  ****    0 ROOT
