@<TRIPOS>MOLECULE
GG1
   51    54     1     0     0
SMALL
bcc


@<TRIPOS>ATOM
      1 N1         -0.0480    0.0110   -0.0590 n         1 GG1     -0.367000
      2 C4         -0.7640    0.0010   -3.7540 c3        1 GG1      0.150300
      3 C5          1.3820    0.2160   -2.5260 c         1 GG1      0.726100
      4 C6          3.4470   -0.1140    1.1980 ca        1 GG1     -0.048000
      5 C7          5.5810    0.0270    0.0220 cg        1 GG1     -0.101000
      6 C8          4.1760    0.0170    0.0010 ca        1 GG1     -0.034000
      7 C10        -1.4380   -4.0880   -4.9020 ca        1 GG1     -0.106600
      8 C13        -0.2850   -3.4150   -5.3220 ca        1 GG1     -0.118500
      9 C15        -0.0570   -2.0950   -4.9410 ca        1 GG1     -0.135500
     10 C17        -2.1390   -2.0980   -3.7080 ca        1 GG1     -0.135500
     11 C20         8.8260   -0.9590    0.9400 ca        1 GG1     -0.077300
     12 C21        -0.9870   -1.4280   -4.1360 ca        1 GG1     -0.170300
     13 C22         2.0830    0.1200   -1.2260 ca        1 GG1     -0.209600
     14 C26         6.7790    0.0320    0.0360 c1        1 GG1     -0.132100
     15 O6         -0.8230   -6.0890   -6.0560 o         1 GG1     -0.828800
     16 O5         -2.7310   -6.0980   -4.8950 o         1 GG1     -0.828800
     17 C19        -2.3610   -3.4180   -4.0920 ca        1 GG1     -0.118500
     18 N6         -0.0230    0.1810   -2.5040 n         1 GG1     -0.471400
     19 O2          1.9940    0.3540   -3.6000 o         1 GG1     -0.611500
     20 C3          1.3450   -0.0060   -0.0220 ca        1 GG1      0.134600
     21 C2          2.0620   -0.1270    1.1960 ca        1 GG1     -0.203000
     22 C25        -0.8030   -0.1880    1.1500 c3        1 GG1      0.079300
     23 C1         -0.7460    0.1040   -1.2970 c         1 GG1      0.820500
     24 O1         -1.9940    0.1700   -1.2790 o         1 GG1     -0.634500
     25 C23         3.4790    0.1300   -1.2080 ca        1 GG1     -0.009000
     26 C11         8.2110    0.0600    0.0370 c3        1 GG1      0.050000
     27 C16         9.8670   -0.5940    1.8000 ca        1 GG1     -0.122000
     28 C18        10.4670   -1.5480    2.6200 ca        1 GG1     -0.130000
     29 C14         8.3910   -2.2890    0.9130 ca        1 GG1     -0.122000
     30 C12         8.9920   -3.2410    1.7340 ca        1 GG1     -0.130000
     31 C9         10.0320   -2.8720    2.5880 ca        1 GG1     -0.133000
     32 H41        -0.1700    0.5230   -4.5590 h1        1 GG1      0.073700
     33 H42        -1.7560    0.5230   -3.6320 h1        1 GG1      0.073700
     34 H6          3.9900   -0.2100    2.1510 ha        1 GG1      0.140000
     35 H13         0.4320   -3.9580   -5.9580 ha        1 GG1      0.153000
     36 H15         0.8540   -1.5700   -5.2650 ha        1 GG1      0.121000
     37 H17        -2.8610   -1.5740   -3.0620 ha        1 GG1      0.121000
     38 H19        -3.2630   -3.9630   -3.7680 ha        1 GG1      0.153000
     39 H2          1.5270   -0.2350    2.1510 ha        1 GG1      0.141000
     40 H251       -0.5910    0.6490    1.8680 h1        1 GG1      0.057033
     41 H252       -0.5180   -1.1640    1.6260 h1        1 GG1      0.057033
     42 H253       -1.9030   -0.2020    0.9190 h1        1 GG1      0.057033
     43 H23         4.0210    0.2230   -2.1660 ha        1 GG1      0.169000
     44 H111        8.5820   -0.1250   -1.0140 hc        1 GG1      0.066700
     45 H112        8.5560    1.0920    0.3330 hc        1 GG1      0.066700
     46 H16        10.2120    0.4500    1.8320 ha        1 GG1      0.137000
     47 H18        11.2850   -1.2540    3.2940 ha        1 GG1      0.130500
     48 H14         7.5670   -2.5780    0.2420 ha        1 GG1      0.137000
     49 H12         8.6440   -4.2840    1.7080 ha        1 GG1      0.130500
     50 H9         10.5050   -3.6240    3.2360 ha        1 GG1      0.128000
     51 C24        -1.6830   -5.5320   -5.3160 c         1 GG1      0.905200
@<TRIPOS>BOND
     1    1   20 1
     2    1   22 1
     3    1   23 1
     4    2   12 1
     5    2   18 1
     6    2   32 1
     7    2   33 1
     8    3   13 1
     9    3   18 1
    10    3   19 2
    11    4    6 ar
    12    4   21 ar
    13    4   34 1
    14    5    6 1
    15    5   14 3
    16    6   25 ar
    17    7    8 ar
    18    7   17 ar
    19    7   51 1
    20    8    9 ar
    21    8   35 1
    22    9   12 ar
    23    9   36 1
    24   10   12 ar
    25   10   17 ar
    26   10   37 1
    27   11   26 1
    28   11   27 ar
    29   11   29 ar
    30   13   20 ar
    31   13   25 ar
    32   14   26 1
    33   15   51 1
    34   16   51 1
    35   17   38 1
    36   18   23 1
    37   20   21 ar
    38   21   39 1
    39   22   40 1
    40   22   41 1
    41   22   42 1
    42   23   24 2
    43   25   43 1
    44   26   44 1
    45   26   45 1
    46   27   28 ar
    47   27   46 1
    48   28   31 ar
    49   28   47 1
    50   29   30 ar
    51   29   48 1
    52   30   31 ar
    53   30   49 1
    54   31   50 1
@<TRIPOS>SUBSTRUCTURE
     1 GG1         1 TEMP              0 ****  ****    0 ROOT
