@<TRIPOS>MOLECULE
GG2
   60    64     1     0     0
SMALL
bcc


@<TRIPOS>ATOM
      1 C1           0.0000     0.0000     0.0000 ca         1 GG2       0.211100
      2 C2           1.3950     0.0000     0.0000 ca         1 GG2      -0.165500
      3 C3           2.0920     0.0000     1.2080 ca         1 GG2       0.005500
      4 O4          -0.6800    -0.0000    -1.1790 os         1 GG2      -0.291900
      5 N6           2.4280    -1.1730     4.1780 nc         1 GG2      -0.706800
      6 C7           2.8250     4.7950     4.8410 ca         1 GG2      -0.102400
      7 C8           2.3080     2.4920     4.0260 c          1 GG2       0.688100
      8 C10          3.0690    -0.8060     5.2920 cd         1 GG2       0.170800
      9 C11          3.5840    -1.8090     6.1790 c          1 GG2       0.290600
     10 C12          3.1380     0.5890     5.4320 cd         1 GG2      -0.095600
     11 C13          2.4980     1.0920     4.3250 cc         1 GG2      -0.365900
     12 C14          3.7050     7.0190     5.1410 ca         1 GG2      -0.102000
     13 C15         -2.1050    -0.0000    -1.1060 c3         1 GG2       0.243700
     14 C16          2.4990     7.5540     4.6880 ca         1 GG2      -0.052400
     15 C19          1.4800     9.5630     3.6480 c          1 GG2       0.648500
     16 C20          3.2330     9.8230     5.4210 c3         1 GG2       0.051000
     17 C21          2.6950    11.2090     5.7310 c3         1 GG2      -0.034400
     18 C22          1.6210     5.3240     4.3890 ca         1 GG2      -0.097500
     19 C24          4.0530     2.8330     5.8250 c3         1 GG2       0.052000
     20 C4           1.3890     0.0010     2.4050 ca         1 GG2      -0.334200
     21 C5          -0.0000     0.0010     2.4160 ca         1 GG2       0.005500
     22 C6          -0.6970     0.0000     1.2080 ca         1 GG2      -0.165500
     23 N1           2.0860     0.0010     3.6130 na         1 GG2       0.899300
     24 N5           2.9940     3.3650     4.9200 n          1 GG2      -0.041000
     25 C44          3.8680     5.6360     5.2180 ca         1 GG2      -0.097500
     26 N2           2.3290     8.9890     4.6110 n          1 GG2      -0.053000
     27 C18          1.4560     6.7070     4.3120 ca         1 GG2      -0.102000
     28 C25          2.2400    11.8650     4.4450 c3         1 GG2      -0.023400
     29 C23          1.1330    11.0300     3.8390 c3         1 GG2      -0.109400
     30 O1           4.1730    -1.5180     7.2470 o          1 GG2      -0.462100
     31 N3           3.4010    -3.1570     5.8420 nz         1 GG2       0.206600
     32 C17          3.7050     1.4750     6.4610 c3         1 GG2       0.036900
     33 H2           1.9360    -0.0010    -0.9380 ha         1 GG2       0.135500
     34 H3           3.1760     0.0000     1.2120 ha         1 GG2       0.109000
     35 H14          4.5140     7.6770     5.4340 ha         1 GG2       0.129500
     36 H151        -2.4400     0.8840    -0.5780 h1         1 GG2       0.006033
     37 H152        -2.4400    -0.8850    -0.5780 h1         1 GG2       0.006033
     38 H153        -2.5180    -0.0000    -2.1080 h1         1 GG2       0.006033
     39 H201         3.4230     9.3130     6.3570 h1         1 GG2       0.018200
     40 H202         4.1690     9.9320     4.8860 h1         1 GG2       0.018200
     41 H211         1.8550    11.1270     6.4100 hc         1 GG2       0.027700
     42 H212         3.4770    11.8070     6.1840 hc         1 GG2       0.027700
     43 H22          0.8130     4.6630     4.0980 ha         1 GG2       0.120000
     44 H241         4.1740     3.5450     6.6330 h1         1 GG2       0.037200
     45 H242         4.9450     2.6890     5.2270 h1         1 GG2       0.037200
     46 H5          -0.5390     0.0020     3.3560 ha         1 GG2       0.109000
     47 H6          -1.7800    -0.0000     1.2080 ha         1 GG2       0.135500
     48 H44          4.8030     5.2170     5.5690 ha         1 GG2       0.120000
     49 H18          0.5200     7.1240     3.9610 ha         1 GG2       0.129500
     50 H251         1.8690    12.8600     4.6570 hc         1 GG2       0.025700
     51 H252         3.0720    11.9210     3.7530 hc         1 GG2       0.025700
     52 H231         0.8790    11.4490     2.8730 hc         1 GG2       0.043200
     53 H232         0.2660    11.0940     4.4850 hc         1 GG2       0.043200
     54 HN31         3.8350    -3.3420     4.9590 hn         1 GG2       0.244133
     55 HN32         3.8150    -3.7360     6.5450 hn         1 GG2       0.244133
     56 H171         4.6040     1.0270     6.8680 hc         1 GG2       0.049700
     57 H172         2.9780     1.6220     7.2510 hc         1 GG2       0.049700
     58 H33          2.4230    -3.3680     5.8310 hn         1 GG2       0.244133
     59 O3           1.6280     2.8500     3.0660 o          1 GG2      -0.609500
     60 O2           0.9540     8.9610     2.7080 o          1 GG2      -0.644500
@<TRIPOS>BOND
     1     1     2 ar  
     2     1     4 1   
     3     1    22 ar  
     4     2     3 ar  
     5     2    33 1   
     6     3    20 ar  
     7     3    34 1   
     8     4    13 1   
     9     5     8 2   
    10     5    23 1   
    11     6    18 ar  
    12     6    24 1   
    13     6    25 ar  
    14     7    11 1   
    15     7    24 1   
    16     7    59 2   
    17     8     9 1   
    18     8    10 1   
    19     9    30 2   
    20     9    31 1   
    21    10    11 2   
    22    10    32 1   
    23    11    23 1   
    24    12    14 ar  
    25    12    25 ar  
    26    12    35 1   
    27    13    36 1   
    28    13    37 1   
    29    13    38 1   
    30    14    26 1   
    31    14    27 ar  
    32    15    26 1   
    33    15    29 1   
    34    15    60 2   
    35    16    17 1   
    36    16    26 1   
    37    16    39 1   
    38    16    40 1   
    39    17    28 1   
    40    17    41 1   
    41    17    42 1   
    42    18    27 ar  
    43    18    43 1   
    44    19    24 1   
    45    19    32 1   
    46    19    44 1   
    47    19    45 1   
    48    20    21 ar  
    49    20    23 1   
    50    21    22 ar  
    51    21    46 1   
    52    22    47 1   
    53    25    48 1   
    54    27    49 1   
    55    28    29 1   
    56    28    50 1   
    57    28    51 1   
    58    29    52 1   
    59    29    53 1   
    60    31    54 1   
    61    31    55 1   
    62    31    58 1   
    63    32    56 1   
    64    32    57 1   
@<TRIPOS>SUBSTRUCTURE
     1 GG2         1 TEMP              0 ****  ****    0 ROOT
