@<TRIPOS>MOLECULE
molecule
   45    45     1     0     0
SMALL
bcc


@<TRIPOS>ATOM
      1 C2           0.0000     0.0000     0.0000 c3         1 GG3       0.121800
      2 C6          -1.9610    -0.0340    -1.3870 c3         1 GG3       0.175800
      3 C7           1.5260     0.0000     0.0000 c3         1 GG3      -0.020400
      4 C8           2.1750     0.0000     1.4010 c3         1 GG3      -0.045600
      5 O16          2.7900    -2.6430     1.4320 o          1 GG3      -0.882000
      6 P14          1.9640    -1.5740     2.3180 p5         1 GG3       1.042200
      7 O17          0.5320    -1.9490     2.5630 o          1 GG3      -0.882000
      8 O15          2.8630    -1.3970     3.6480 o          1 GG3      -0.882000
      9 P9           1.9030     1.5870     2.2840 p5         1 GG3       1.042200
     10 O11          2.7740     1.4110     3.6360 o          1 GG3      -0.882000
     11 O10          0.4630     1.9370     2.5140 o          1 GG3      -0.882000
     12 O12          2.7510     2.6680     1.4340 o          1 GG3      -0.882000
     13 O13          3.5940    -0.0000     1.1870 oh         1 GG3      -0.614800
     14 N13         -0.4980    -0.0040    -1.3730 n3         1 GG3      -0.723600
     15 C21         -0.0050     1.1640    -2.1010 c3         1 GG3       0.155100
     16 C22         -2.5250    -1.2470    -0.6550 c3         1 GG3      -0.082400
     17 C26         -2.0830    -2.5720    -1.2820 c3         1 GG3      -0.061400
     18 C27         -2.6570    -3.7650    -0.5140 c3         1 GG3      -0.026100
     19 C28         -2.2020    -5.0770    -1.1020 ca         1 GG3      -0.107300
     20 C33         -2.9590    -5.6770    -2.0970 ca         1 GG3      -0.142500
     21 C32         -2.5380    -6.8900    -2.6400 ca         1 GG3      -0.196000
     22 C31         -1.3650    -7.4900    -2.1830 ca         1 GG3      -0.224000
     23 C30         -0.6130    -6.8770    -1.1820 ca         1 GG3      -0.196000
     24 C29         -1.0340    -5.6640    -0.6380 ca         1 GG3      -0.142500
     25 H21         -0.3590     0.8850     0.5100 h1         1 GG3       0.081700
     26 H22         -0.3590    -0.8820     0.5150 h1         1 GG3       0.081700
     27 H61         -2.3010    -0.0560    -2.4150 h1         1 GG3      -0.011800
     28 H62         -2.3350     0.8660    -0.9130 h1         1 GG3      -0.011800
     29 H71          1.8670    -0.8790    -0.5340 hc         1 GG3       0.016700
     30 H72          1.8670     0.8790    -0.5340 hc         1 GG3       0.016700
     31 HO13         4.0370     0.1000     2.0130 ho         1 GG3       0.425000
     32 H211         1.0130     0.9840    -2.4260 h1         1 GG3       0.012700
     33 H212        -0.0290     2.0320    -1.4530 h1         1 GG3       0.012700
     34 H213        -0.6330     1.3430    -2.9660 h1         1 GG3       0.012700
     35 H221        -3.6070    -1.1950    -0.6750 hc         1 GG3       0.040700
     36 H222        -2.1920    -1.2190     0.3760 hc         1 GG3       0.040700
     37 H261        -1.0010    -2.6280    -1.2680 hc         1 GG3       0.049200
     38 H262        -2.4270    -2.6120    -2.3080 hc         1 GG3       0.049200
     39 H271        -2.3330    -3.7100     0.5180 hc         1 GG3       0.031700
     40 H272        -3.7380    -3.7190    -0.5480 hc         1 GG3       0.031700
     41 H33         -3.9370    -5.2820    -2.3470 ha         1 GG3       0.121500
     42 H32         -3.1220    -7.3670    -3.4190 ha         1 GG3       0.077500
     43 H31         -1.0330    -8.4270    -2.6140 ha         1 GG3       0.062000
     44 H30          0.3040    -7.3370    -0.8350 ha         1 GG3       0.077500
     45 H29         -0.4190    -5.5150     0.2410 ha         1 GG3       0.121500
@<TRIPOS>BOND
     1     1    14 1
     2     1     3 1
     3     1    25 1
     4     1    26 1
     5     2    16 1
     6     2    14 1
     7     2    27 1
     8     2    28 1
     9     3     4 1
    10     3    29 1
    11     3    30 1
    12     4    13 1
    13     4     9 1
    14     4     6 1
    15     5     6 1
    16     6     7 1
    17     6     8 1
    18     9    11 1
    19     9    12 1
    20     9    10 1
    21    13    31 1
    22    14    15 1
    23    15    32 1
    24    15    33 1
    25    15    34 1
    26    16    17 1
    27    16    35 1
    28    16    36 1
    29    17    18 1
    30    17    37 1
    31    17    38 1
    32    18    19 1
    33    18    39 1
    34    18    40 1
    35    19    20 ar
    36    19    24 ar
    37    20    21 ar
    38    20    41 1
    39    21    22 ar
    40    21    42 1
    41    22    23 ar
    42    22    43 1
    43    23    24 ar
    44    23    44 1
    45    24    45 1
@<TRIPOS>SUBSTRUCTURE
     1 GG3         1 TEMP              0 ****  ****    0 ROOT
