@<TRIPOS>MOLECULE
molecule
   28    30     1     0     0
SMALL
bcc


@<TRIPOS>ATOM
      1 C1           0.0000     0.0000     0.0000 ca         1 GG5       0.393200
      2 N2           1.3510     0.0000     0.0000 nb         1 GG5      -0.653000
      3 C3           1.9520     0.0000     1.2120 ca         1 GG5       0.393200
      4 C4           1.2670    -0.0010     2.4160 ca         1 GG5      -0.231800
      5 C5          -0.1250    -0.0020     2.3780 ca         1 GG5       0.033000
      6 C6          -0.7760    -0.0020     1.1470 ca         1 GG5      -0.231800
      7 C7          -0.8800    -0.0030     3.5940 cc         1 GG5      -0.218300
      8 C8          -1.2810     1.1410     4.2390 cd         1 GG5      -0.131300
      9 N9          -1.9660     0.7260     5.3440 na         1 GG5      -0.019600
     10 N11         -2.0400    -0.6110     5.4660 nd         1 GG5      -0.475800
     11 C12         -1.3760    -1.0560     4.3940 cc         1 GG5       0.371800
     12 C13         -1.2320    -2.4670     4.1640 ca         1 GG5      -0.141500
     13 C14         -0.1360    -3.1520     4.6900 ca         1 GG5      -0.076500
     14 C15          0.0020    -4.5220     4.4670 ca         1 GG5      -0.174000
     15 C16         -0.9560    -5.2070     3.7190 ca         1 GG5       0.140900
     16 C17         -2.0520    -4.5220     3.1930 ca         1 GG5      -0.174000
     17 C18         -2.1900    -3.1520     3.4160 ca         1 GG5      -0.076500
     18 F19         -0.8230    -6.5210     3.5040 f          1 GG5      -0.136900
     19 H1          -0.5080     0.0000    -0.9570 h4         1 GG5       0.017600
     20 H3           3.0350     0.0000     1.2420 h4         1 GG5       0.017600
     21 H4           1.7990    -0.0010     3.3600 ha         1 GG5       0.145500
     22 H6          -1.8570    -0.0030     1.0880 ha         1 GG5       0.145500
     23 H8          -1.6390     1.9880     3.6670 h4         1 GG5       0.184000
     24 HN9         -2.3750     1.3580     6.0030 hn         1 GG5       0.320700
     25 H14          0.6070    -2.6200     5.2710 ha         1 GG5       0.141500
     26 H15          0.8530    -5.0540     4.8760 ha         1 GG5       0.147000
     27 H17         -2.7950    -5.0540     2.6120 ha         1 GG5       0.147000
     28 H18         -3.0410    -2.6200     3.0080 ha         1 GG5       0.141500
@<TRIPOS>BOND
     1     1     6 ar
     2     1     2 ar
     3     1    19 1
     4     2     3 ar
     5     3     4 ar
     6     3    20 1
     7     4     5 ar
     8     4    21 1
     9     5     6 ar
    10     5     7 1
    11     6    22 1
    12     7    11 1
    13     7     8 2
    14     8     9 1
    15     8    23 1
    16     9    10 1
    17     9    24 1
    18    10    11 2
    19    11    12 1
    20    12    13 ar
    21    12    17 ar
    22    13    14 ar
    23    13    25 1
    24    14    15 ar
    25    14    26 1
    26    15    18 1
    27    15    16 ar
    28    16    17 ar
    29    16    27 1
    30    17    28 1
@<TRIPOS>SUBSTRUCTURE
     1 GG5         1 TEMP              0 ****  ****    0 ROOT
