@<TRIPOS>MOLECULE
GG5
   28    30     1     0     0
SMALL
bcc


@<TRIPOS>ATOM
      1 C1         -0.3870    0.6860   -0.1620 ca        1 GG5      0.393700
      2 N2          0.6440   -0.1320   -0.4480 nb        1 GG5     -0.666000
      3 C3          1.0990   -0.9140    0.5510 ca        1 GG5      0.393700
      4 C4          0.5610   -0.9160    1.8480 ca        1 GG5     -0.243800
      5 C5         -0.5130   -0.0590    2.1370 ca        1 GG5      0.040000
      6 C6         -0.9950    0.7610    1.1020 ca        1 GG5     -0.243800
      7 C7         -1.0910    0.0130    3.4520 cc        1 GG5     -0.206300
      8 C8         -1.6100    1.1780    4.0560 cd        1 GG5     -0.128300
      9 N9         -2.0260    0.8090    5.3310 na        1 GG5     -0.007600
     10 N11        -1.8250   -0.4820    5.5840 nd        1 GG5     -0.506800
     11 C12        -1.2510   -1.0250    4.4640 cc        1 GG5      0.379800
     12 C13        -0.9070   -2.4350    4.3580 ca        1 GG5     -0.137500
     13 C14        -0.3230   -3.1040    5.4430 ca        1 GG5     -0.082000
     14 C15        -0.0100   -4.4560    5.3540 ca        1 GG5     -0.172000
     15 C16        -0.2890   -5.1570    4.1670 ca        1 GG5      0.130900
     16 C17        -0.8800   -4.4940    3.0750 ca        1 GG5     -0.172000
     17 C18        -1.1840   -3.1420    3.1790 ca        1 GG5     -0.082000
     18 F19         0.0120   -6.4740    4.0730 f         1 GG5     -0.139900
     19 H1         -0.7440    1.3160   -0.9960 h4        1 GG5      0.022600
     20 H3          1.9460   -1.5760    0.2940 h4        1 GG5      0.022600
     21 H4          0.9700   -1.5790    2.6240 ha        1 GG5      0.147000
     22 H6         -1.8350    1.4460    1.2750 ha        1 GG5      0.147000
     23 H8         -1.6940    2.1960    3.6790 h4        1 GG5      0.183000
     24 HN9        -2.4430    1.3910    6.0190 hn        1 GG5      0.326700
     25 H14        -0.1120   -2.5580    6.3760 ha        1 GG5      0.149500
     26 H15         0.4500   -4.9830    6.2020 ha        1 GG5      0.150500
     27 H17        -1.0990   -5.0500    2.1520 ha        1 GG5      0.150500
     28 H18        -1.6450   -2.6170    2.3260 ha        1 GG5      0.149500
@<TRIPOS>BOND
     1    1    2 ar  
     2    1    6 ar  
     3    1   19 1   
     4    2    3 ar  
     5    3    4 ar  
     6    3   20 1   
     7    4    5 ar  
     8    4   21 1   
     9    5    6 ar  
    10    5    7 1   
    11    6   22 1   
    12    7    8 2   
    13    7   11 1   
    14    8    9 1   
    15    8   23 1   
    16    9   10 1   
    17    9   24 1   
    18   10   11 2   
    19   11   12 1   
    20   12   13 ar  
    21   12   17 ar  
    22   13   14 ar  
    23   13   25 1   
    24   14   15 ar  
    25   14   26 1   
    26   15   16 ar  
    27   15   18 1   
    28   16   17 ar  
    29   16   27 1   
    30   17   28 1   
@<TRIPOS>SUBSTRUCTURE
     1 GG5         1 TEMP              0 ****  ****    0 ROOT
