@<TRIPOS>MOLECULE
molecule
   16    15     1     0     0
SMALL
bcc


@<TRIPOS>ATOM
      1 O1           0.0000     0.0000     0.0000 oh         1 GG6      -0.564800
      2 C2           1.4230     0.0000     0.0000 c3         1 GG6       0.173100
      3 C3           1.9290     0.0000     1.4360 c3         1 GG6      -0.120100
      4 C1           1.9060    -1.1810    -0.8390 c3         1 GG6       0.017900
      5 O2           1.5080    -2.3920    -0.2070 oh         1 GG6      -0.622800
      6 P            1.2820    -1.3290    -2.5070 p5         1 GG6       1.051700
      7 O3          -0.2060    -1.4650    -2.6340 o          1 GG6      -0.914167
      8 O4           1.9010    -0.0300    -3.2460 o          1 GG6      -0.914167
      9 O5           2.1400    -2.5440    -3.1380 o          1 GG6      -0.914167
     10 HO1         -0.3140     0.8870     0.0630 ho         1 GG6       0.352000
     11 H2           1.7620     0.9120    -0.4760 h1         1 GG6       0.030700
     12 H31          1.4170    -0.7710     1.9990 hc         1 GG6       0.009700
     13 H32          2.9950    -0.1950     1.4430 hc         1 GG6       0.009700
     14 H33          1.7350     0.9660     1.8870 hc         1 GG6       0.009700
     15 H1           2.9880    -1.1520    -0.8790 h1         1 GG6       0.021700
     16 HO2          2.1910    -3.0350    -0.3020 ho         1 GG6       0.374000
@<TRIPOS>BOND
     1     1     2 1
     2     1    10 1
     3     2     3 1
     4     2     4 1
     5     2    11 1
     6     3    12 1
     7     3    13 1
     8     3    14 1
     9     4     5 1
    10     4     6 1
    11     4    15 1
    12     5    16 1
    13     6     7 1
    14     6     8 1
    15     6     9 1
@<TRIPOS>SUBSTRUCTURE
     1 GG6         1 TEMP              0 ****  ****    0 ROOT
