@<TRIPOS>MOLECULE
GG6
   16    15     1     0     0
SMALL
bcc


@<TRIPOS>ATOM
      1 O1         -0.0260    0.0540    0.2110 oh        1 GG6     -0.690800
      2 C2          1.3920    0.0820    0.0910 c3        1 GG6      0.200100
      3 C3          1.9450   -0.0020    1.5110 c3        1 GG6     -0.085100
      4 C1          1.9950   -1.0020   -0.8030 c3        1 GG6     -0.059100
      5 O2          1.9210   -2.2470   -0.1390 oh        1 GG6     -0.672800
      6 P           1.4010   -1.2820   -2.5690 p5        1 GG6      1.195700
      7 O3          0.0050   -0.7000   -2.5320 o         1 GG6     -0.930833
      8 O4          2.4090   -0.5430   -3.4050 o         1 GG6     -0.930833
      9 O5          1.4420   -2.7880   -2.6740 o         1 GG6     -0.930833
     10 HO1        -0.3410   -0.2780   -0.6600 ho        1 GG6      0.473000
     11 H2          1.6700    1.0970   -0.3280 h1        1 GG6     -0.010300
     12 H31         3.0490    0.1530    1.4920 hc        1 GG6      0.004033
     13 H32         1.7280   -1.0110    1.9330 hc        1 GG6      0.004033
     14 H33         1.4790    0.7730    2.1670 hc        1 GG6      0.004033
     15 H1          3.0850   -0.7530   -0.9080 h1        1 GG6      0.004700
     16 HO2         1.5120   -2.8760   -0.7620 ho        1 GG6      0.425000
@<TRIPOS>BOND
     1    1    2 1   
     2    1   10 1   
     3    2    3 1   
     4    2    4 1   
     5    2   11 1   
     6    3   12 1   
     7    3   13 1   
     8    3   14 1   
     9    4    5 1   
    10    4    6 1   
    11    4   15 1   
    12    5   16 1   
    13    6    7 1   
    14    6    8 1   
    15    6    9 1   
@<TRIPOS>SUBSTRUCTURE
     1 GG6         1 TEMP              0 ****  ****    0 ROOT
