@<TRIPOS>MOLECULE
GG7
   13    12     1     0     0
SMALL
bcc


@<TRIPOS>ATOM
      1 O1A         0.1910   -0.4340    0.1540 o         1 GG7     -0.951500
      2 P           1.6410   -0.0300    0.0510 p5        1 GG7      1.207700
      3 O1B         1.8670    1.3930   -0.4230 o         1 GG7     -0.951500
      4 CA          2.2970    0.0310    1.7730 c3        1 GG7     -0.051700
      5 CB          1.7180   -1.2020    2.3990 c3        1 GG7     -0.042100
      6 N           1.9270    1.2750    2.3930 n3        1 GG7     -0.881800
      7 O1C         2.5410   -1.0630   -0.5900 o         1 GG7     -0.951500
      8 HA          3.4080   -0.0810    1.6810 h1        1 GG7      0.000700
      9 HB1         0.6020   -1.1480    2.3520 hc        1 GG7      0.001700
     10 HB2         2.0480   -2.0710    1.7770 hc        1 GG7      0.001700
     11 HB3         2.0360   -1.3710    3.4600 hc        1 GG7      0.001700
     12 HN1         1.6710    1.9130    1.6500 hn        1 GG7      0.307800
     13 HN2         2.7240    1.6750    2.8590 hn        1 GG7      0.307800
@<TRIPOS>BOND
     1    1    2 1
     2    2    3 1
     3    2    4 1
     4    2    7 1
     5    4    5 1
     6    4    6 1
     7    4    8 1
     8    5    9 1
     9    5   10 1
    10    5   11 1
    11    6   12 1
    12    6   13 1
@<TRIPOS>SUBSTRUCTURE
     1 GG7         1 TEMP              0 ****  ****    0 ROOT
