@<TRIPOS>MOLECULE
molecule
   26    26     1     0     0
SMALL
bcc


@<TRIPOS>ATOM
      1 C4           0.0000     0.0000     0.0000 ca         1 GG8      -0.316500
      2 C5           1.3820     0.0000     0.0000 ca         1 GG8      -0.028500
      3 C6           2.0740     0.0000     1.1970 ca         1 GG8      -0.149500
      4 C7           1.3820     0.0010     2.3940 ca         1 GG8      -0.072000
      5 C8          -0.0000     0.0020     2.3930 ca         1 GG8      -0.149500
      6 C9          -0.6910    -0.0000     1.1970 ca         1 GG8      -0.028500
      7 N1          -1.1200     1.5920    -1.9470 n7         1 GG8      -0.916100
      8 C3           0.0280     2.4460    -2.2640 c3         1 GG8       0.233800
      9 F1           1.6170     3.9150    -4.1400 f          1 GG8      -0.224633
     10 C1           0.7390     4.6060    -3.2980 c3         1 GG8       0.618900
     11 F2           1.4010     4.9540    -2.1170 f          1 GG8      -0.224633
     12 F3           0.2920     5.7650    -3.9420 f          1 GG8      -0.224633
     13 C2          -0.4590     3.7140    -2.9680 c3         1 GG8      -0.144400
     14 S1          -0.8810     0.0080    -1.5260 sy         1 GG8       1.424200
     15 O1          -0.0010    -0.5380    -2.5000 o          1 GG8      -0.631800
     16 O2          -2.1660    -0.5320    -1.2510 o          1 GG8      -0.631800
     17 H1           1.9240    -0.0000    -0.9380 ha         1 GG8       0.150500
     18 H2           3.1570    -0.0000     1.1980 ha         1 GG8       0.138500
     19 H3           1.9230     0.0020     3.3330 ha         1 GG8       0.135000
     20 H4          -0.5420     0.0020     3.3320 ha         1 GG8       0.138500
     21 H5          -1.7750    -0.0000     1.1970 ha         1 GG8       0.150500
     22 H6          -2.0490     1.9560    -2.0150 hn         1 GG8       0.456800
     23 H7           0.5410     2.7160    -1.3490 h1         1 GG8       0.062700
     24 H8           0.7090     1.9100    -2.9150 h1         1 GG8       0.062700
     25 H9          -0.9720     3.4440    -3.8840 hc         1 GG8       0.086200
     26 H10         -1.1400     4.2490    -2.3180 hc         1 GG8       0.086200
@<TRIPOS>BOND
     1    11    10 1
     2    16    14 2
     3     9    10 1
     4    10    12 1
     5    10    13 1
     6    14     7 1
     7    14    15 2
     8    14     1 1
     9     7     8 1
    10     2     1 ar
    11     2     3 ar
    12    13     8 1
    13     1     6 ar
    14     3     4 ar
    15     6     5 ar
    16     4     5 ar
    17     2    17 1
    18     3    18 1
    19     4    19 1
    20     5    20 1
    21     6    21 1
    22     7    22 1
    23     8    23 1
    24     8    24 1
    25    13    25 1
    26    13    26 1
@<TRIPOS>SUBSTRUCTURE
     1 GG8         1 TEMP              0 ****  ****    0 ROOT
