@<TRIPOS>MOLECULE
GG8
   26    26     1     0     0
SMALL
bcc


@<TRIPOS>ATOM
      1 C4           0.0000     0.0000     0.0000 ca         1 GG8      -0.162500
      2 C5           1.3820     0.0000     0.0000 ca         1 GG8       0.005000
      3 C6           2.0740     0.0000     1.1970 ca         1 GG8      -0.131500
      4 C7           1.3820     0.0010     2.3940 ca         1 GG8      -0.043000
      5 C8          -0.0000     0.0020     2.3930 ca         1 GG8      -0.131500
      6 C9          -0.6910    -0.0000     1.1970 ca         1 GG8       0.005000
      7 N1          -1.1200     1.5920    -1.9470 n7         1 GG8      -0.587100
      8 C3           0.0280     2.4460    -2.2640 c3         1 GG8       0.226800
      9 F1           1.6170     3.9150    -4.1400 f          1 GG8      -0.206300
     10 C1           0.7390     4.6060    -3.2980 c3         1 GG8       0.572900
     11 F2           1.4010     4.9540    -2.1170 f          1 GG8      -0.206300
     12 F3           0.2920     5.7650    -3.9420 f          1 GG8      -0.206300
     13 C2          -0.4590     3.7140    -2.9680 c3         1 GG8      -0.102400
     14 S1          -0.8810     0.0080    -1.5260 sy         1 GG8       1.045200
     15 O1          -0.0010    -0.5380    -2.5000 o          1 GG8      -0.582300
     16 O2          -2.1660    -0.5320    -1.2510 o          1 GG8      -0.582300
     17 H1           1.9240    -0.0000    -0.9380 ha         1 GG8       0.122500
     18 H2           3.1570    -0.0000     1.1980 ha         1 GG8       0.110500
     19 H3           1.9230     0.0020     3.3330 ha         1 GG8       0.103000
     20 H4          -0.5420     0.0020     3.3320 ha         1 GG8       0.110500
     21 H5          -1.7750    -0.0000     1.1970 ha         1 GG8       0.122500
     22 H6          -2.0490     1.9560    -2.0150 hn         1 GG8       0.351800
     23 H7           0.5410     2.7160    -1.3490 h1         1 GG8       0.028700
     24 H8           0.7090     1.9100    -2.9150 h1         1 GG8       0.028700
     25 H9          -0.9720     3.4440    -3.8840 hc         1 GG8       0.055200
     26 H10         -1.1400     4.2490    -2.3180 hc         1 GG8       0.055200
@<TRIPOS>BOND
     1     1     2 ar  
     2     1     6 ar  
     3     1    14 1   
     4     2     3 ar  
     5     2    17 1   
     6     3     4 ar  
     7     3    18 1   
     8     4     5 ar  
     9     4    19 1   
    10     5     6 ar  
    11     5    20 1   
    12     6    21 1   
    13     7     8 1   
    14     7    14 1   
    15     7    22 1   
    16     8    13 1   
    17     8    23 1   
    18     8    24 1   
    19     9    10 1   
    20    10    11 1   
    21    10    12 1   
    22    10    13 1   
    23    13    25 1   
    24    13    26 1   
    25    14    15 2   
    26    14    16 2   
@<TRIPOS>SUBSTRUCTURE
     1 GG8         1 TEMP              0 ****  ****    0 ROOT
