@<TRIPOS>MOLECULE
GG9
   36    36     1     0     0
SMALL
bcc


@<TRIPOS>ATOM
      1 C1          0.0900   -0.2850    0.2620 c2        1 GG9     -0.163000
      2 C2          1.4370    0.2880   -0.0200 c3        1 GG9     -0.132000
      3 C3          2.2980    0.4620    1.2510 c3        1 GG9      0.132000
      4 C4          1.4800    1.1980    2.3680 c3        1 GG9      0.019000
      5 C5         -0.0810    1.2360    2.2230 c3        1 GG9      0.038000
      6 C6         -0.5840    0.1280    1.3480 c2        1 GG9     -0.163000
      7 C7         -0.4710   -1.2660   -0.7370 c2        1 GG9      0.371000
      8 O1          3.4860    1.1060    0.9470 os        1 GG9     -0.742000
      9 O2          1.9370    2.5400    2.4840 oh        1 GG9     -0.334000
     10 O3         -0.6180    1.1640    3.5440 os        1 GG9     -0.370000
     11 O4         -0.6300   -0.9200   -1.9580 o         1 GG9     -0.653000
     12 O5         -0.8010   -2.4510   -0.3980 o         1 GG9     -0.653000
     13 P1          4.9800    0.2710    0.8760 p5        1 GG9      1.574500
     14 O6          6.0080    1.2740    1.3630 o         1 GG9     -0.962833
     15 O7          4.8640   -0.9510    1.7590 o         1 GG9     -0.962833
     16 O8          5.1870   -0.0550   -0.5910 o         1 GG9     -0.962833
     17 C8         -1.8340    1.8790    3.9590 c3        1 GG9      0.249000
     18 C9         -2.7960    0.7110    4.4280 c2        1 GG9     -0.173000
     19 C10        -2.5260    2.7620    2.8790 c2        1 GG9      0.333000
     20 O9         -1.9300    3.7680    2.3810 o         1 GG9     -0.625500
     21 O10        -3.7110    2.4880    2.4990 o         1 GG9     -0.625500
     22 O11        -1.6230    1.7560    7.2970 o         1 GG9     -0.957833
     23 O12        -2.9600    3.8560    6.8400 o         1 GG9     -0.957833
     24 O13        -0.4840    4.0090    7.0580 o         1 GG9     -0.957833
     25 O14        -1.3540    2.6220    5.0160 os        1 GG9     -0.821000
     26 F1         -2.8710   -0.3340    3.5680 f         1 GG9     -0.222000
     27 F2         -2.0320    0.0040    5.4910 f         1 GG9     -0.034000
     28 H2          1.3150    1.2950   -0.5020 hc        1 GG9      0.068500
     29 H3          1.9890   -0.3610   -0.7470 hc        1 GG9      0.068500
     30 H4          2.5360   -0.5670    1.6610 h1        1 GG9      0.068000
     31 H5          1.7080    0.6700    3.3400 h1        1 GG9      0.051000
     32 H61        -0.3740    2.2180    1.7470 h1        1 GG9      0.121000
     33 H62        -1.5670   -0.2830    1.6260 ha        1 GG9      0.128000
     34 HO2         1.3400    2.9540    3.1240 ho        1 GG9      0.195000
     35 H9         -1.6260    0.4820    6.0790 ha        1 GG9      0.385000
     36 P2         -1.6470    3.1450    6.6600 p5        1 GG9      1.671500
@<TRIPOS>BOND
     1    1    2 1   
     2    1    6 1   
     3    1    7 1   
     4    2    3 1   
     5    2   28 1   
     6    2   29 1   
     7    3    4 1   
     8    3    8 1   
     9    3   30 1   
    10    4    5 1   
    11    4    9 1   
    12    4   31 1   
    13    5    6 1   
    14    5   10 1   
    15    5   32 1   
    16    6   33 1   
    17    7   11 1   
    18    7   12 1   
    19    8   13 1   
    20    9   34 1   
    21   10   17 1   
    22   13   14 1   
    23   13   15 1   
    24   13   16 1   
    25   17   18 1   
    26   17   19 1   
    27   17   25 1   
    28   18   26 1   
    29   18   27 1   
    30   19   20 1   
    31   19   21 1   
    32   22   36 1   
    33   23   36 1   
    34   24   36 1   
    35   25   36 1   
    36   27   35 1   
@<TRIPOS>SUBSTRUCTURE
     1 GG9         1 TEMP              0 ****  ****    0 ROOT
