@<TRIPOS>MOLECULE
molecule
   36    36     1     0     0
SMALL
bcc


@<TRIPOS>ATOM
      1 C1           0.0000     0.0000     0.0000 ce         1 GG9      -0.173400
      2 C2           1.3160     0.0000     0.0000 c2         1 GG9      -0.181200
      3 C3           2.1510     0.0000     1.2480 c3         1 GG9       0.257300
      4 C4           1.3030    -0.4260     2.4480 c3         1 GG9       0.134100
      5 C5           0.0130     0.4040     2.4510 c3         1 GG9       0.155100
      6 C6          -0.8350    -0.0040     1.2480 c3         1 GG9      -0.041200
      7 C7          -0.6920     0.0090    -1.2970 c          1 GG9       0.896800
      8 O1           2.6660     1.3130     1.4730 os         1 GG9      -0.528200
      9 O2           2.0280    -0.1900     3.6560 oh         1 GG9      -0.514800
     10 O3          -0.7130     0.1570     3.6570 os         1 GG9      -0.450600
     11 O4          -0.0500     0.0190    -2.3280 o          1 GG9      -0.912300
     12 O5          -2.0390     0.0100    -1.3410 o          1 GG9      -0.912300
     13 P1           4.2420     1.6380     1.5360 p5         1 GG9       1.251900
     14 O6           4.4570     3.2280     1.6730 o          1 GG9      -0.950833
     15 O7           4.8930     0.8970     2.8080 o          1 GG9      -0.950833
     16 O8           4.8940     1.1570     0.2980 o          1 GG9      -0.950833
     17 C8          -1.3640     1.3120     4.1900 c3         1 GG9       0.295600
     18 C9          -1.9910     0.9650     5.5420 c3         1 GG9       0.351900
     19 C10         -2.4410     1.7660     3.2390 c          1 GG9       0.823600
     20 O9          -2.3480     2.8380     2.6880 o          1 GG9      -0.820300
     21 O10         -3.5030     0.9800     3.0030 o          1 GG9      -0.820300
     22 O11         -1.4610     3.6550     6.2580 o          1 GG9      -0.937167
     23 O12         -1.7890     4.5530     3.9220 o          1 GG9      -0.937167
     24 O13          0.5440     4.6900     5.1260 o          1 GG9      -0.937167
     25 O14         -0.4080     2.3610     4.3640 os         1 GG9      -0.547200
     26 F1          -2.8670    -0.1150     5.3870 f          1 GG9      -0.298800
     27 F2          -0.9830     0.6230     6.4500 f          1 GG9      -0.298800
     28 H2           1.8110     0.1440    -0.9530 ha         1 GG9       0.116000
     29 H3           2.9720    -0.6960     1.1270 h1         1 GG9      -0.014300
     30 H4           1.0580    -1.4780     2.3650 h1         1 GG9      -0.047300
     31 H5           0.2600     1.4560     2.3790 h1         1 GG9       0.144700
     32 H61         -1.6530     0.6970     1.1330 hc         1 GG9       0.058200
     33 H62         -1.2290    -1.0000     1.4100 hc         1 GG9       0.058200
     34 HO2          2.2780    -1.0140     4.0390 ho         1 GG9       0.323000
     35 H9          -2.5380     1.8220     5.9170 h2         1 GG9       0.120700
     36 P2          -0.7930     3.8110     4.9460 p5         1 GG9       1.235900
@<TRIPOS>BOND
     1     1     7 1
     2     1     2 2
     3     1     6 1
     4     2     3 1
     5     2    28 1
     6     3     8 1
     7     3     4 1
     8     3    29 1
     9     4     5 1
    10     4     9 1
    11     4    30 1
    12     5     6 1
    13     5    10 1
    14     5    31 1
    15     6    32 1
    16     6    33 1
    17     7    11 1
    18     7    12 1
    19     8    13 1
    20     9    34 1
    21    10    17 1
    22    13    16 1
    23    13    14 1
    24    13    15 1
    25    17    25 1
    26    17    18 1
    27    17    19 1
    28    18    26 1
    29    18    27 1
    30    18    35 1
    31    19    20 1
    32    19    21 1
    33    36    22 1
    34    36    24 1
    35    36    23 1
    36    36    25 1
@<TRIPOS>SUBSTRUCTURE
     1 GG9         1 TEMP              0 ****  ****    0 ROOT
