@<TRIPOS>MOLECULE
molecule
   69    68     1     0     0
SMALL
bcc


@<TRIPOS>ATOM
      1 C1           0.0000     0.0000     0.0000 c          1 GGA       0.855600
      2 O2          -0.5070    -0.7810    -0.9890 o          1 GGA      -0.774300
      3 O4          -0.7050     0.5870     0.8090 o          1 GGA      -0.774300
      4 C6           1.5160     0.0000     0.0000 c3         1 GGA      -0.034500
      5 N8           1.9260     0.0000     1.3810 nz         1 GGA      -0.779600
      6 C10          2.0460     1.2140    -0.7670 c3         1 GGA      -0.063400
      7 C12          1.6190     1.2400    -2.2350 c3         1 GGA      -0.151400
      8 C14          2.1740     2.4240    -3.0100 c          1 GGA       0.674100
      9 O16          2.8790     3.2910    -2.5020 o          1 GGA      -0.627100
     10 N18          1.7620     2.4100    -4.3380 ns         1 GGA      -0.573900
     11 C20          2.1280     3.4360    -5.2790 c3         1 GGA       0.032700
     12 C22          1.1070     4.5630    -5.2950 c3         1 GGA      -0.105100
     13 C24          2.2480     2.7910    -6.6530 c          1 GGA       0.650100
     14 O26          1.5360     1.8590    -7.0200 o          1 GGA      -0.538100
     15 N30          3.2160     3.4060    -7.4340 ns         1 GGA      -0.589900
     16 C29          3.5020     3.0120    -8.7960 c3         1 GGA      -0.140200
     17 P34          2.4120     3.9340    -9.8560 p5         1 GGA       1.326100
     18 C33          2.7690     5.6610    -9.6240 c3         1 GGA      -0.297600
     19 C35          1.9070     6.5840   -10.4740 c3         1 GGA      -0.042400
     20 C37          2.2490     8.0600   -10.2530 c3         1 GGA      -0.078400
     21 C39          1.3960     8.9610   -11.1460 c3         1 GGA       0.155800
     22 N44          1.7410    10.3610   -10.9290 n7         1 GGA      -0.818200
     23 C43          0.9430    11.2310   -11.7810 c3         1 GGA       0.164800
     24 C45          1.2960    12.6990   -11.5750 c3         1 GGA      -0.079400
     25 C47          0.4800    13.6220   -12.4850 c3         1 GGA      -0.094400
     26 C49          0.8140    15.0960   -12.2740 c3         1 GGA       0.056800
     27 N54          0.0630    15.9590   -13.1430 nz         1 GGA      -0.797600
     28 O56          0.9610     3.5820    -9.7050 o          1 GGA      -0.795300
     29 O58          3.0080     3.6200   -11.3260 os         1 GGA      -0.678800
     30 P60          3.0540     2.2700   -12.2100 p5         1 GGA       1.198900
     31 O62          3.6430     2.7720   -13.6290 o          1 GGA      -0.764500
     32 O64          1.4940     1.9890   -12.5290 o          1 GGA      -0.764500
     33 O66          3.7910     1.1270   -11.5780 o          1 GGA      -0.764500
     34 H6           1.8720    -0.9050    -0.4770 hx         1 GGA       0.112700
     35 HN81         2.9210    -0.1010     1.4330 hn         1 GGA       0.436133
     36 HN82         1.6550     0.8630     1.8100 hn         1 GGA       0.436133
     37 H101         3.1290     1.2070    -0.7210 hc         1 GGA       0.048200
     38 H102         1.6840     2.1140    -0.2840 hc         1 GGA       0.048200
     39 H121         0.5370     1.2740    -2.2800 hc         1 GGA       0.093700
     40 H122         1.9580     0.3270    -2.7100 hc         1 GGA       0.093700
     41 HN18         1.1870     1.6540    -4.6530 hn         1 GGA       0.348500
     42 H20          3.0920     3.8420    -4.9980 h1         1 GGA       0.064700
     43 H221         0.2770     4.2890    -5.9350 hc         1 GGA       0.049033
     44 H222         1.5710     5.4660    -5.6730 hc         1 GGA       0.049033
     45 H223         0.7450     4.7370    -4.2890 hc         1 GGA       0.049033
     46 HN30         3.7430     4.1580    -7.0360 hn         1 GGA       0.298500
     47 H291         4.5330     3.2420    -9.0380 h1         1 GGA       0.111200
     48 H292         3.3230     1.9500    -8.9180 h1         1 GGA       0.111200
     49 H331         3.8090     5.8350    -9.8710 hc         1 GGA       0.054200
     50 H332         2.6150     5.9080    -8.5800 hc         1 GGA       0.054200
     51 H351         2.0570     6.3410   -11.5190 hc         1 GGA       0.065200
     52 H352         0.8660     6.4240   -10.2210 hc         1 GGA       0.065200
     53 H371         2.0700     8.3150    -9.2160 hc         1 GGA       0.036700
     54 H372         3.2950     8.2200   -10.4830 hc         1 GGA       0.036700
     55 H391         0.3490     8.8090   -10.9120 h1         1 GGA       0.039700
     56 H392         1.5720     8.7050   -12.1840 h1         1 GGA       0.039700
     57 HN44         1.5830    10.5980    -9.9690 hn         1 GGA       0.346800
     58 H431        -0.1060    11.0840   -11.5530 h1         1 GGA       0.032200
     59 H432         1.1190    10.9680   -12.8170 h1         1 GGA       0.032200
     60 H451         2.3490    12.8400   -11.7850 hc         1 GGA       0.050200
     61 H452         1.1050    12.9640   -10.5420 hc         1 GGA       0.050200
     62 H471         0.6810    13.3630   -13.5170 hc         1 GGA       0.050200
     63 H472        -0.5730    13.4700   -12.2840 hc         1 GGA       0.050200
     64 H491         0.5970    15.3600   -11.2460 hx         1 GGA       0.074200
     65 H492         1.8700    15.2460   -12.4590 hx         1 GGA       0.074200
     66 H541         0.3130    16.9110   -12.9640 hn         1 GGA       0.357467
     67 H542        -0.9150    15.8330   -12.9740 hn         1 GGA       0.357467
     68 H83          1.4940    -0.7670     1.8580 hn         1 GGA       0.436133
     69 H543         0.2700    15.7340   -14.0960 hn         1 GGA       0.357467
@<TRIPOS>BOND
     1     1     4 1
     2     1     2 1
     3     1     3 1
     4     4     5 1
     5     4     6 1
     6     4    34 1
     7     5    35 1
     8     5    36 1
     9     6     7 1
    10     6    37 1
    11     6    38 1
    12     7     8 1
    13     7    39 1
    14     7    40 1
    15     8    10 1
    16     8     9 2
    17    10    11 1
    18    10    41 1
    19    11    13 1
    20    11    12 1
    21    11    42 1
    22    12    43 1
    23    12    44 1
    24    12    45 1
    25    13    14 2
    26    13    15 1
    27    15    16 1
    28    15    46 1
    29    16    17 1
    30    16    47 1
    31    16    48 1
    32    17    18 1
    33    17    29 1
    34    17    28 2
    35    18    19 1
    36    18    49 1
    37    18    50 1
    38    19    20 1
    39    19    51 1
    40    19    52 1
    41    20    21 1
    42    20    53 1
    43    20    54 1
    44    21    22 1
    45    21    55 1
    46    21    56 1
    47    22    23 1
    48    22    57 1
    49    23    24 1
    50    23    58 1
    51    23    59 1
    52    24    25 1
    53    24    60 1
    54    24    61 1
    55    25    26 1
    56    25    62 1
    57    25    63 1
    58    26    27 1
    59    26    64 1
    60    26    65 1
    61    27    66 1
    62    27    67 1
    63    29    30 1
    64    30    33 1
    65    30    31 1
    66    30    32 1
    67    68     5 1
    68    69    27 1
@<TRIPOS>SUBSTRUCTURE
     1 GGA         1 TEMP              0 ****  ****    0 ROOT
