@<TRIPOS>MOLECULE
GGA
   67    66     1     0     0
SMALL
bcc


@<TRIPOS>ATOM
      1 C1          1.7900   -1.5590   -0.2450 c         1 GGA      0.888600
      2 O2          1.5950   -1.9700    0.9370 o         1 GGA     -0.851300
      3 O4          1.1900   -2.0220   -1.2550 o         1 GGA     -0.851300
      4 C6          2.8660   -0.4490   -0.4730 c3        1 GGA      0.020500
      5 N8          3.6750   -0.1670    0.7110 n3        1 GGA     -0.890800
      6 C10         2.2040    0.8170   -1.0330 c3        1 GGA     -0.044400
      7 C12         1.8570    0.6400   -2.4960 c3        1 GGA     -0.154400
      8 C14         1.2190    1.8920   -3.0680 c         1 GGA      0.662100
      9 O16         0.7650    2.8100   -2.3490 o         1 GGA     -0.650100
     10 N18         1.1550    1.9890   -4.4450 n         1 GGA     -0.571900
     11 C20         0.5440    3.1060   -5.1210 c3        1 GGA      0.038700
     12 C22        -0.9840    3.0220   -5.1920 c3        1 GGA     -0.114100
     13 C24         1.0650    3.2410   -6.5810 c         1 GGA      0.634100
     14 O26         1.5760    2.2630   -7.1700 o         1 GGA     -0.648100
     15 N30         0.9580    4.4840   -7.1450 n         1 GGA     -0.511900
     16 C29         1.1830    4.7420   -8.5330 c3        1 GGA     -0.196200
     17 P34         1.0170    6.4240   -8.8680 p5        1 GGA      1.557100
     18 C33         2.5770    6.9880   -8.6490 c3        1 GGA     -0.385600
     19 C35         2.6150    8.3470   -9.3000 c3        1 GGA     -0.121400
     20 C37         3.9610    9.0190   -9.1970 c3        1 GGA     -0.080400
     21 C39         4.0820   10.2230  -10.1330 c3        1 GGA      0.153800
     22 N44         3.1230   11.2970   -9.9520 n3        1 GGA     -0.826200
     23 C43         1.9760   11.2180  -10.8520 c3        1 GGA      0.110800
     24 C45         2.2570   11.7780  -12.2480 c3        1 GGA     -0.042400
     25 C47         1.1670   11.3130  -13.1860 c3        1 GGA     -0.162400
     26 C49         1.4540   11.7290  -14.6240 c3        1 GGA      0.156800
     27 N54         0.5890   11.1530  -15.6320 n3        1 GGA     -0.916800
     28 O56         0.0970    6.9940   -7.8560 o         1 GGA     -0.944300
     29 O58         0.6510    6.5450  -10.3440 os        1 GGA     -0.784800
     30 P60         0.7240    6.8930  -12.1610 p5        1 GGA      1.423900
     31 O62         1.1410    8.3370  -12.0790 o         1 GGA     -0.919500
     32 O64        -0.6550    6.6280  -12.6530 o         1 GGA     -0.919500
     33 O66         1.8080    5.9350  -12.5200 o         1 GGA     -0.919500
     34 H6          3.5810   -0.8510   -1.2490 h1        1 GGA      0.040700
     35 HN81        3.1480    0.4330    1.3210 hn        1 GGA      0.326800
     36 HN82        3.7910   -1.0360    1.2060 hn        1 GGA      0.326800
     37 H101        2.8840    1.7020   -0.9250 hc        1 GGA      0.039200
     38 H102        1.2710    1.0410   -0.4540 hc        1 GGA      0.039200
     39 H121        1.1390   -0.2250   -2.5950 hc        1 GGA      0.085700
     40 H122        2.7800    0.3810   -3.0770 hc        1 GGA      0.085700
     41 HN18        1.4840    1.2460   -5.0160 hn        1 GGA      0.327500
     42 H20         0.8140    4.0380   -4.5360 h1        1 GGA      0.080700
     43 H221       -1.3860    3.9570   -5.6510 hc        1 GGA      0.045033
     44 H222       -1.4050    2.9180   -4.1630 hc        1 GGA      0.045033
     45 H223       -1.3080    2.1490   -5.8060 hc        1 GGA      0.045033
     46 HN30        0.4060    5.1850   -6.6810 hn        1 GGA      0.337500
     47 H291        0.4560    4.1640   -9.1720 h1        1 GGA      0.080700
     48 H292        2.1930    4.3450   -8.8220 h1        1 GGA      0.080700
     49 H331        2.8490    7.0620   -7.5700 hc        1 GGA      0.067700
     50 H332        3.3440    6.3310   -9.1290 hc        1 GGA      0.067700
     51 H351        2.3060    8.2240  -10.3950 hc        1 GGA      0.099700
     52 H352        1.8290    8.9860   -8.8150 hc        1 GGA      0.099700
     53 H371        4.1520    9.3360   -8.1380 hc        1 GGA      0.016200
     54 H372        4.7660    8.2880   -9.4740 hc        1 GGA      0.016200
     55 H391        5.1020   10.6810   -9.9770 h1        1 GGA      0.036700
     56 H392        4.0290    9.8450  -11.1940 h1        1 GGA      0.036700
     57 HN44        2.7790   11.2710   -9.0070 hn        1 GGA      0.337800
     58 H431        1.1410   11.8210  -10.3960 h1        1 GGA      0.080200
     59 H432        1.6040   10.1460  -10.9830 h1        1 GGA      0.080200
     60 H451        2.3080   12.8980  -12.2200 hc        1 GGA      0.010200
     61 H452        3.2490   11.4090  -12.6200 hc        1 GGA      0.010200
     62 H471        0.1820   11.7390  -12.8610 hc        1 GGA      0.096200
     63 H472        1.0840   10.1810  -13.0990 hc        1 GGA      0.096200
     64 H491        1.3730   12.8500  -14.7110 h1        1 GGA      0.019200
     65 H492        2.5150   11.4490  -14.8810 h1        1 GGA      0.019200
     66 H541        0.7600   10.1650  -15.6930 hn        1 GGA      0.343300
     67 H542       -0.3690   11.2680  -15.3550 hn        1 GGA      0.343300
@<TRIPOS>BOND
     1    1    2 1   
     2    1    3 1   
     3    1    4 1   
     4    4    5 1   
     5    4    6 1   
     6    4   34 1   
     7    5   35 1   
     8    5   36 1   
     9    6    7 1   
    10    6   37 1   
    11    6   38 1   
    12    7    8 1   
    13    7   39 1   
    14    7   40 1   
    15    8    9 2   
    16    8   10 1   
    17   10   11 1   
    18   10   41 1   
    19   11   12 1   
    20   11   13 1   
    21   11   42 1   
    22   12   43 1   
    23   12   44 1   
    24   12   45 1   
    25   13   14 2   
    26   13   15 1   
    27   15   16 1   
    28   15   46 1   
    29   16   17 1   
    30   16   47 1   
    31   16   48 1   
    32   17   18 1   
    33   17   28 2   
    34   17   29 1   
    35   18   19 1   
    36   18   49 1   
    37   18   50 1   
    38   19   20 1   
    39   19   51 1   
    40   19   52 1   
    41   20   21 1   
    42   20   53 1   
    43   20   54 1   
    44   21   22 1   
    45   21   55 1   
    46   21   56 1   
    47   22   23 1   
    48   22   57 1   
    49   23   24 1   
    50   23   58 1   
    51   23   59 1   
    52   24   25 1   
    53   24   60 1   
    54   24   61 1   
    55   25   26 1   
    56   25   62 1   
    57   25   63 1   
    58   26   27 1   
    59   26   64 1   
    60   26   65 1   
    61   27   66 1   
    62   27   67 1   
    63   29   30 1   
    64   30   31 1   
    65   30   32 1   
    66   30   33 1   
@<TRIPOS>SUBSTRUCTURE
     1 GGA         1 TEMP              0 ****  ****    0 ROOT
