@<TRIPOS>MOLECULE
molecule
   25    24     1     0     0
SMALL
bcc


@<TRIPOS>ATOM
      1 N            0.0000     0.0000     0.0000 nz         1 GGB      -0.794600
      2 CA           1.4690     0.0000     0.0000 c3         1 GGB      -0.015500
      3 CB           1.9790     0.0000     1.4420 c3         1 GGB      -0.083400
      4 CG           1.4690     1.2470     2.1640 c3         1 GGB       0.066400
      5 C            1.9710    -1.2300    -0.7120 c          1 GGB       0.861600
      6 OD           1.9450     1.2480     3.5100 os         1 GGB      -0.048100
      7 NE           1.4440     2.4210     4.1230 nu         1 GGB      -0.692700
      8 CZ           1.7410     2.6920     5.4370 c2         1 GGB       0.696100
      9 NH1          2.4870     1.8690     6.1200 n2         1 GGB      -0.725100
     10 NH2          1.2540     3.8310     6.0320 nz         1 GGB      -0.804600
     11 OA1          1.3190    -2.2460    -0.6960 o          1 GGB      -0.747800
     12 OA2          3.1430    -1.1960    -1.3640 o          1 GGB      -0.747800
     13 HN1A        -0.3340     0.9270     0.1740 hn         1 GGB       0.441467
     14 HN2         -0.3340    -0.3130    -0.8900 hn         1 GGB       0.441467
     15 HCA          1.8300     0.8850    -0.5100 hx         1 GGB       0.108700
     16 HCB1         3.0630     0.0010     1.4420 hc         1 GGB       0.111700
     17 HCB2         1.6190    -0.8850     1.9520 hc         1 GGB       0.111700
     18 HCG1         0.3860     1.2460     2.1640 h1         1 GGB       0.031200
     19 HCG2         1.8300     2.1320     1.6530 h1         1 GGB       0.031200
     20 HNE          0.9020     3.0710     3.5890 hn         1 GGB       0.465800
     21 HN1          2.7050     2.0660     7.0770 hn         1 GGB       0.443400
     22 HN21         1.9360     4.5610     5.9650 hn         1 GGB       0.470133
     23 HN22         0.4130     4.1160     5.5700 hn         1 GGB       0.470133
     24 HN3         -0.3340    -0.6070     0.7220 hn         1 GGB       0.441467
     25 HH23         1.0780     3.6510     7.0010 hn         1 GGB       0.470133
@<TRIPOS>BOND
     1     1     2 1
     2     1    13 1
     3     1    14 1
     4     2     3 1
     5     2     5 1
     6     2    15 1
     7     3     4 1
     8     3    16 1
     9     3    17 1
    10     4     6 1
    11     4    18 1
    12     4    19 1
    13     5    11 1
    14     5    12 1
    15     6     7 1
    16     7     8 1
    17     7    20 1
    18     8     9 2
    19     8    10 1
    20     9    21 1
    21    10    22 1
    22    10    23 1
    23    24     1 1
    24    25    10 1
@<TRIPOS>SUBSTRUCTURE
     1 GGB         1 TEMP              0 ****  ****    0 ROOT
