@<TRIPOS>MOLECULE
GGB
   25    24     1     0     0
SMALL
bcc


@<TRIPOS>ATOM
      1 N            0.0000     0.0000     0.0000 nz         1 GGB       0.082400
      2 CA           1.4690     0.0000     0.0000 c3         1 GGB      -0.199500
      3 CB           1.9790     0.0000     1.4420 c3         1 GGB      -0.023400
      4 CG           1.4690     1.2470     2.1640 c3         1 GGB       0.181400
      5 C            1.9710    -1.2300    -0.7120 c          1 GGB       0.943600
      6 OD           1.9450     1.2480     3.5100 os         1 GGB      -0.192100
      7 NE           1.4440     2.4210     4.1230 nu         1 GGB      -0.307700
      8 CZ           1.7410     2.6920     5.4370 c2         1 GGB       0.231100
      9 NH1          2.4870     1.8690     6.1200 n2         1 GGB      -0.563100
     10 NH2          1.2540     3.8310     6.0320 nz         1 GGB       0.201400
     11 OA1          1.3190    -2.2460    -0.6960 o          1 GGB      -0.790300
     12 OA2          3.1430    -1.1960    -1.3640 o          1 GGB      -0.790300
     13 HN1A        -0.3340    -0.3190    -0.8880 hn         1 GGB       0.212467
     14 HN2         -0.3340     0.9290     0.1670 hn         1 GGB       0.212467
     15 HCA          1.8300     0.8850    -0.5100 hx         1 GGB       0.090700
     16 HCB1         1.6190    -0.8850     1.9520 hc         1 GGB       0.072200
     17 HCB2         3.0630     0.0010     1.4420 hc         1 GGB       0.072200
     18 HCG1         1.8300     2.1320     1.6530 h1         1 GGB      -0.004800
     19 HCG2         0.3860     1.2460     2.1640 h1         1 GGB      -0.004800
     20 HNE          0.8830     3.0600     3.5950 hn         1 GGB       0.296800
     21 HN1          2.8430     1.0390     5.6880 hn         1 GGB       0.393400
     22 HN21         1.5600     3.8660     6.9850 hn         1 GGB       0.223800
     23 HN22         1.5940     4.6350     5.5430 hn         1 GGB       0.223800
     24 HN3         -0.3340    -0.5970     0.7310 hn         1 GGB       0.212467
     25 HH23         0.2540     3.8110     6.0220 hn         1 GGB       0.223800
@<TRIPOS>BOND
     1     1     2 1   
     2     1    13 1   
     3     1    14 1   
     4     1    24 1   
     5     2     3 1   
     6     2     5 1   
     7     2    15 1   
     8     3     4 1   
     9     3    16 1   
    10     3    17 1   
    11     4     6 1   
    12     4    18 1   
    13     4    19 1   
    14     5    11 1   
    15     5    12 1   
    16     6     7 1   
    17     7     8 1   
    18     7    20 1   
    19     8     9 2   
    20     8    10 1   
    21     9    21 1   
    22    10    22 1   
    23    10    23 1   
    24    10    25 1   
@<TRIPOS>SUBSTRUCTURE
     1 GGB         1 TEMP              0 ****  ****    0 ROOT
