@<TRIPOS>MOLECULE
molecule
   55    56     1     0     0
SMALL
bcc


@<TRIPOS>ATOM
      1 CB1          0.0000     0.0000     0.0000 c3         1 GGC      -0.074400
      2 CG1         -0.5110    -1.2490     0.7200 c3         1 GGC      -0.181400
      3 CD1         -2.0170    -1.2480     0.7190 c          1 GGC       0.668100
      4 OE1         -2.6230    -0.3390     0.1940 o          1 GGC      -0.586100
      5 C1           2.0340     1.2310    -0.7090 c          1 GGC       0.871600
      6 O11          2.2580     1.1980    -2.0310 o          1 GGC      -0.781300
      7 O12          2.2340     2.2470    -0.0870 o          1 GGC      -0.781300
      8 N1           2.0190     0.0000     1.3850 nz         1 GGC      -0.792600
      9 CA1          1.5300     0.0000     0.0000 c3         1 GGC      -0.020500
     10 N2          -2.6920    -2.2590     1.3000 ns         1 GGC      -0.578900
     11 CA2         -4.1560    -2.2590     1.3010 c3         1 GGC       0.055700
     12 CB2         -4.6670    -3.7010     1.2990 c3         1 GGC      -0.000300
     13 SG2         -4.0620    -4.5550    -0.1830 ss         1 GGC      -0.335200
     14 C2          -4.6600    -1.5500     2.5310 c          1 GGC       0.633100
     15 O2          -5.7190    -0.9600     2.5000 o          1 GGC      -0.623100
     16 C1'         -5.6750    -8.1050    -4.4180 ca         1 GGC      -0.120000
     17 C2'         -6.8080    -7.3530    -4.4880 ca         1 GGC      -0.125000
     18 C3'         -7.1740    -6.5090    -3.4420 ca         1 GGC      -0.126000
     19 C4'         -6.4100    -6.4110    -2.3200 ca         1 GGC      -0.108000
     20 C4A         -5.2380    -7.1770    -2.2080 ca         1 GGC      -0.023000
     21 C8A         -4.8620    -8.0310    -3.2750 ca         1 GGC      -0.034000
     22 C8'         -3.6860    -8.7920    -3.1670 ca         1 GGC      -0.116000
     23 C7'         -2.9220    -8.6950    -2.0440 ca         1 GGC      -0.127000
     24 C6'         -3.2890    -7.8510    -0.9980 ca         1 GGC      -0.112000
     25 C5'         -4.4200    -7.0990    -1.0680 ca         1 GGC      -0.057300
     26 C10         -4.7990    -6.1920     0.0740 c3         1 GGC       0.055000
     27 N3          -3.9310    -1.5700     3.6650 ns         1 GGC      -0.543900
     28 CA3         -4.4200    -0.8810     4.8610 c3         1 GGC      -0.006000
     29 C3          -3.4290    -1.0540     5.9820 c          1 GGC       0.884600
     30 O31         -3.6690    -0.5030     7.1820 o          1 GGC      -0.848300
     31 O32         -2.4170    -1.6890     5.8000 o          1 GGC      -0.848300
     32 HB11        -0.3610     0.0010    -1.0210 hc         1 GGC       0.103200
     33 HB12        -0.3610     0.8840     0.5110 hc         1 GGC       0.103200
     34 HG11        -0.1500    -2.1330     0.2090 hc         1 GGC       0.048700
     35 HG12        -0.1510    -1.2500     1.7410 hc         1 GGC       0.048700
     36 HN11         2.9430     0.3840     1.4130 hn         1 GGC       0.440467
     37 HN12         2.0370    -0.9380     1.7330 hn         1 GGC       0.440467
     38 HA1          1.8910    -0.8840    -0.5110 hx         1 GGC       0.096700
     39 HN2         -2.1920    -3.0240     1.7090 hn         1 GGC       0.317500
     40 HA2         -4.5170    -1.7480     0.4160 h1         1 GGC       0.117700
     41 HB21        -4.3060    -4.2130     2.1830 h1         1 GGC       0.074700
     42 HB22        -5.7500    -3.7010     1.2980 h1         1 GGC       0.074700
     43 H4'         -6.7080    -5.7510    -1.5150 ha         1 GGC       0.142000
     44 H8'         -3.3890    -9.4520    -3.9730 ha         1 GGC       0.129000
     45 H7'         -2.0160    -9.2830    -1.9630 ha         1 GGC       0.127000
     46 H6'         -2.6630    -7.7920    -0.1160 ha         1 GGC       0.133000
     47 H101        -4.4340    -6.6110     1.0040 h1         1 GGC       0.066200
     48 H102        -5.8780    -6.0990     0.1190 h1         1 GGC       0.066200
     49 HN3         -3.0760    -2.0880     3.7010 hn         1 GGC       0.324500
     50 HA31        -5.3750    -1.3010     5.1550 h1         1 GGC       0.051200
     51 HA32        -4.5410     0.1740     4.6460 h1         1 GGC       0.051200
     52 H1'         -5.4030    -8.7580    -5.2390 ha         1 GGC       0.129000
     53 H2'         -7.4340    -7.4120    -5.3700 ha         1 GGC       0.125000
     54 H13          1.4110     0.5570     1.9530 hn         1 GGC       0.440467
     55 H3'         -8.0800    -5.9210    -3.5230 ha         1 GGC       0.130000
@<TRIPOS>BOND
     1     1     2 1
     2     1     9 1
     3     1    32 1
     4     1    33 1
     5     2     3 1
     6     2    34 1
     7     2    35 1
     8     3     4 2
     9     3    10 1
    10     5     6 1
    11     5     7 1
    12     5     9 1
    13     8     9 1
    14     8    36 1
    15     8    37 1
    16     9    38 1
    17    10    11 1
    18    10    39 1
    19    11    12 1
    20    11    14 1
    21    11    40 1
    22    12    13 1
    23    12    41 1
    24    12    42 1
    25    13    26 1
    26    14    15 2
    27    14    27 1
    28    16    17 ar
    29    16    21 ar
    30    16    52 1
    31    17    18 ar
    32    17    53 1
    33    18    19 ar
    34    18    55 1
    35    19    20 ar
    36    19    43 1
    37    20    21 ar
    38    20    25 ar
    39    21    22 ar
    40    22    23 ar
    41    22    44 1
    42    23    24 ar
    43    23    45 1
    44    24    25 ar
    45    24    46 1
    46    25    26 1
    47    26    47 1
    48    26    48 1
    49    27    28 1
    50    27    49 1
    51    28    29 1
    52    28    50 1
    53    28    51 1
    54    29    30 1
    55    29    31 1
    56    54     8 1
@<TRIPOS>SUBSTRUCTURE
     1 GGC         1 TEMP              0 ****  ****    0 ROOT
