@<TRIPOS>MOLECULE
molecule
   43    44     1     0     0
SMALL
bcc


@<TRIPOS>ATOM
      1 C01          0.0000     0.0000     0.0000 c3         1 GGE       0.123700
      2 O02          1.4280     0.0000     0.0000 os         1 GGE      -0.315900
      3 C03          2.0470     0.0000     1.2120 ca         1 GGE       0.122100
      4 C04          3.4360    -0.0000     1.2860 ca         1 GGE       0.083100
      5 O05          4.1790     0.0010     0.1470 oh         1 GGE      -0.504100
      6 C06          4.0610     0.0000     2.5220 ca         1 GGE      -0.140000
      7 C07          3.3030     0.0010     3.6790 ca         1 GGE      -0.131000
      8 C08          1.9220    -0.0000     3.6050 ca         1 GGE      -0.095300
      9 C09          1.2930     0.0050     2.3750 ca         1 GGE      -0.181000
     10 C10          1.1020     0.0060     4.8690 c3         1 GGE       0.203400
     11 O11          1.7150     0.8660     5.8310 oh         1 GGE      -0.606800
     12 C12          1.0220    -1.4150     5.4320 c3         1 GGE       0.153100
     13 C13          0.1890    -1.4080     6.7160 c3         1 GGE       0.112400
     14 O14         -1.0900    -0.8270     6.4510 oh         1 GGE      -0.604800
     15 O15          0.4090    -2.2750     4.4700 os         1 GGE      -0.297900
     16 C16          0.7050    -3.6000     4.5500 ca         1 GGE       0.121100
     17 C17          1.4750    -4.0780     5.5970 ca         1 GGE      -0.196000
     18 C18          1.7760    -5.4250     5.6750 ca         1 GGE      -0.127000
     19 C19          1.3080    -6.2980     4.7110 ca         1 GGE      -0.128000
     20 C20          0.5380    -5.8280     3.6630 ca         1 GGE      -0.187000
     21 C21          0.2290    -4.4800     3.5810 ca         1 GGE       0.119100
     22 O22         -0.5290    -4.0150     2.5520 os         1 GGE      -0.314900
     23 C23         -0.9720    -4.9730     1.5880 c3         1 GGE       0.127700
     24 H012        -0.3610     0.8840     0.5120 h1         1 GGE       0.042700
     25 H013        -0.3610     0.0020    -1.0210 h1         1 GGE       0.042700
     26 H011        -0.3610    -0.8850     0.5090 h1         1 GGE       0.042700
     27 H051         4.5910     0.8420     0.0420 ho         1 GGE       0.413000
     28 H061         5.1420     0.0010     2.5830 ha         1 GGE       0.141000
     29 H071         3.7920    -0.0020     4.6460 ha         1 GGE       0.143000
     30 H091         0.2110     0.0050     2.3190 ha         1 GGE       0.148000
     31 H101         0.1030     0.3640     4.6490 h1         1 GGE       0.069700
     32 H111         1.3720     1.7390     5.7360 ho         1 GGE       0.415000
     33 H121         2.0200    -1.7720     5.6520 h1         1 GGE       0.068700
     34 H131         0.0580    -2.4240     7.0670 h1         1 GGE       0.037200
     35 H132         0.6990    -0.8270     7.4750 h1         1 GGE       0.037200
     36 H141        -1.6400    -0.9200     7.2110 ho         1 GGE       0.403000
     37 H171         1.8430    -3.3960     6.3540 ha         1 GGE       0.139000
     38 H181         2.3790    -5.7970     6.4950 ha         1 GGE       0.131000
     39 H191         1.5470    -7.3530     4.7750 ha         1 GGE       0.131000
     40 H201         0.1710    -6.5150     2.9100 ha         1 GGE       0.140000
     41 H231        -0.1130    -5.4330     1.1150 h1         1 GGE       0.040033
     42 H232        -1.5630    -5.7350     2.0820 h1         1 GGE       0.040033
     43 H233        -1.5760    -4.4780     0.8380 h1         1 GGE       0.040033
@<TRIPOS>BOND
     1    19    18 ar
     2    19    20 ar
     3    18    17 ar
     4    20    21 ar
     5    17    16 ar
     6    14    13 1
     7    21    16 ar
     8    21    22 1
     9    16    15 1
    10    13    12 1
    11    22    23 1
    12    15    12 1
    13    12    10 1
    14    10    11 1
    15    10     8 1
    16     8     9 ar
    17     8     7 ar
    18     9     3 ar
    19     1     2 1
    20     7     6 ar
    21     3     2 1
    22     3     4 ar
    23     6     4 ar
    24     4     5 1
    25     1    24 1
    26     1    25 1
    27     1    26 1
    28     5    27 1
    29     6    28 1
    30     7    29 1
    31     9    30 1
    32    10    31 1
    33    11    32 1
    34    12    33 1
    35    13    34 1
    36    13    35 1
    37    14    36 1
    38    17    37 1
    39    18    38 1
    40    19    39 1
    41    20    40 1
    42    23    41 1
    43    23    42 1
    44    23    43 1
@<TRIPOS>SUBSTRUCTURE
     1 GGE         1 TEMP              0 ****  ****    0 ROOT
