@<TRIPOS>MOLECULE
molecule
   24    23     1     0     0
SMALL
bcc


@<TRIPOS>ATOM
      1 N1           0.0000     0.0000     0.0000 nz         1 GGG      -0.793600
      2 CA1          1.4680     0.0000     0.0000 c3         1 GGG       0.007800
      3 C1           1.9700     0.0000     1.4210 c          1 GGG       0.625100
      4 O1           1.1830    -0.0010     2.3430 o          1 GGG      -0.619100
      5 N2           3.2960     0.0010     1.6670 ns         1 GGG      -0.507900
      6 CA2          3.7840     0.0010     3.0480 c3         1 GGG       0.018000
      7 C2           5.2920     0.0010     3.0480 c          1 GGG       0.623100
      8 O2           5.8980     0.0020     1.9970 o          1 GGG      -0.659100
      9 N3           5.9660     0.0010     4.2140 ns         1 GGG      -0.513900
     10 CA3          7.4310     0.0010     4.2150 c3         1 GGG      -0.011000
     11 C3           7.9330     0.0010     5.6360 c          1 GGG       0.882600
     12 O3           9.2530     0.0020     5.8810 o          1 GGG      -0.828800
     13 O            7.1480     0.0010     6.5540 o          1 GGG      -0.828800
     14 HN1         -0.3340     0.8170     0.4720 hn         1 GGG       0.462800
     15 HN1A        -0.3340    -0.8170     0.4720 hn         1 GGG       0.462800
     16 HA1          1.8300     0.8850    -0.5110 hx         1 GGG       0.124200
     17 HA1A         1.8300    -0.8850    -0.5110 hx         1 GGG       0.124200
     18 HN2          3.9460     0.0010     0.9060 hn         1 GGG       0.354500
     19 HA2          3.4230     0.8850     3.5590 h1         1 GGG       0.081700
     20 HA2A         3.4230    -0.8840     3.5590 h1         1 GGG       0.081700
     21 HN3          5.4650     0.0020     5.0810 hn         1 GGG       0.341500
     22 HA3          7.7920    -0.8830     3.7040 h1         1 GGG       0.054700
     23 HA3A         7.7920     0.8860     3.7040 h1         1 GGG       0.054700
     24 H13         -0.3340    -0.0240    -0.9430 hn         1 GGG       0.462800
@<TRIPOS>BOND
     1     1     2 1
     2     2     3 1
     3     3     4 2
     4     3     5 1
     5     5     6 1
     6     6     7 1
     7     7     8 2
     8     7     9 1
     9     9    10 1
    10    10    11 1
    11    11    12 1
    12    11    13 1
    13     1    14 1
    14     1    15 1
    15     2    16 1
    16     2    17 1
    17     5    18 1
    18     6    19 1
    19     6    20 1
    20     9    21 1
    21    10    22 1
    22    10    23 1
    23    24     1 1
@<TRIPOS>SUBSTRUCTURE
     1 GGG         1 TEMP              0 ****  ****    0 ROOT
