@<TRIPOS>MOLECULE
GGH
   45    47     1     0     0
SMALL
bcc


@<TRIPOS>ATOM
      1 C2          0.9870   -2.9720   -0.6900 cc        1 GGH      0.463800
      2 C4          0.6190   -1.0230    0.4690 cd        1 GGH      0.018500
      3 C5         -0.7870   -1.3350    0.6860 cc        1 GGH     -0.051600
      4 C6         -1.3040   -2.5740    0.1520 c         1 GGH      0.723700
      5 P1          7.4290    2.0660    3.0100 p5        1 GGH      1.612800
      6 P2          8.6470    1.1670    5.9170 p5        1 GGH      1.536600
      7 O6         -2.4740   -3.0320    0.2050 o         1 GGH     -0.738500
      8 O1A         6.4860    3.2170    3.0760 o         1 GGH     -0.904500
      9 O2A         8.4850    2.0300    1.9750 o         1 GGH     -0.904500
     10 O3A         7.9990    1.6810    4.4550 os        1 GGH     -0.832800
     11 O5'         6.3940    0.8070    2.6140 os        1 GGH     -0.588200
     12 O1B         9.1990   -0.1800    5.6540 o         1 GGH     -0.909000
     13 O2B         7.5900    1.3680    6.9360 o         1 GGH     -0.909000
     14 C3B         9.9550    2.3300    6.1570 c3        1 GGH     -0.594800
     15 P3         10.8840    3.0070    7.4490 p5        1 GGH      1.393600
     16 O1G        11.8340    4.0260    6.9170 o         1 GGH     -0.907500
     17 O2G         9.7590    3.8720    8.3020 oh        1 GGH     -0.807400
     18 O3G        11.4130    2.0270    8.4370 o         1 GGH     -0.907500
     19 C5'         5.0830    0.8670    3.0570 c3        1 GGH      0.222400
     20 C4'         4.1320    1.3440    1.9420 c3        1 GGH      0.074100
     21 O4'         3.1510    0.3240    1.6500 os        1 GGH     -0.425600
     22 C1'         2.0260    0.9910    1.0170 c3        1 GGH      0.264800
     23 N9          0.8140    0.2190    1.1000 nh        1 GGH     -0.103600
     24 N3          1.4990   -1.8280   -0.2180 nd        1 GGH     -0.549300
     25 N2          1.8250   -3.9060   -1.4250 nh        1 GGH     -0.857800
     26 N1         -0.3610   -3.3690   -0.5310 n         1 GGH     -0.475400
     27 N7         -1.3920   -0.3160    1.4010 ne        1 GGH     -0.631000
     28 C8         -0.4300    0.6200    1.6480 c1        1 GGH      0.037400
     29 C2'         1.9510    2.4020    1.6500 c3        1 GGH     -0.106400
     30 C3'         3.3240    2.6120    2.3010 c3        1 GGH      0.137100
     31 O3'         3.9070    3.7860    1.7740 oh        1 GGH     -0.666800
     32 H3B1       10.7400    1.9110    5.4810 hc        1 GGH      0.081700
     33 H3B2        9.5450    3.2400    5.6540 hc        1 GGH      0.081700
     34 H5'1        4.7690   -0.1690    3.3690 h1        1 GGH      0.032200
     35 H5'2        5.0060    1.5710    3.9330 h1        1 GGH      0.032200
     36 H4'         4.7140    1.5280    0.9970 h1        1 GGH      0.056700
     37 H1'         2.2960    1.0800   -0.0820 h2        1 GGH      0.020700
     38 HN21        2.4330   -3.3870   -2.0330 hn        1 GGH      0.356800
     39 HN22        2.3970   -4.3980   -0.7610 hn        1 GGH      0.356800
     40 HN1        -0.6600   -4.2350   -0.9090 hn        1 GGH      0.299500
     41 H8          8.9850    3.3620    8.5050 ho        1 GGH      0.421000
     42 H2'1        1.7620    3.1640    0.8570 hc        1 GGH      0.059200
     43 H2'2        1.1340    2.4640    2.4090 hc        1 GGH      0.059200
     44 H3'         3.2250    2.7130    3.4160 h1        1 GGH      0.044700
     45 HO3'        4.8090    3.8370    2.1540 ho        1 GGH      0.486000
@<TRIPOS>BOND
     1    1   24 2
     2    1   25 1
     3    1   26 1
     4    2    3 2
     5    2   23 1
     6    2   24 1
     7    3    4 1
     8    3   27 1
     9    4    7 2
    10    4   26 1
    11    5    8 1
    12    5    9 1
    13    5   10 1
    14    5   11 1
    15    6   10 1
    16    6   12 1
    17    6   13 1
    18    6   14 1
    19   11   19 1
    20   14   15 1
    21   14   32 1
    22   14   33 1
    23   15   16 1
    24   15   17 1
    25   15   18 1
    26   17   41 1
    27   19   20 1
    28   19   34 1
    29   19   35 1
    30   20   21 1
    31   20   30 1
    32   20   36 1
    33   21   22 1
    34   22   23 1
    35   22   29 1
    36   22   37 1
    37   23   28 2
    38   25   38 1
    39   25   39 1
    40   26   40 1
    41   27   28 2
    42   29   30 1
    43   29   42 1
    44   29   43 1
    45   30   31 1
    46   30   44 1
    47   31   45 1
@<TRIPOS>SUBSTRUCTURE
     1 GGH         1 TEMP              0 ****  ****    0 ROOT
