@<TRIPOS>MOLECULE
molecule
   47    50     1     0     0
SMALL
bcc


@<TRIPOS>ATOM
      1 O1           0.0000     0.0000     0.0000 os         1 GGJ      -0.330900
      2 C1           1.4280     0.0000     0.0000 c3         1 GGJ       0.128700
      3 C2          -0.6180     0.0000     1.2110 ca         1 GGJ       0.146100
      4 C3          -2.0040    -0.0000     1.2820 ca         1 GGJ      -0.197500
      5 C4          -2.6320    -0.0000     2.5090 ca         1 GGJ      -0.064500
      6 C5          -1.8760    -0.0010     3.6790 ca         1 GGJ      -0.158500
      7 C6          -0.4830    -0.0020     3.6040 ca         1 GGJ      -0.064500
      8 C7           0.1410    -0.0070     2.3740 ca         1 GGJ      -0.197500
      9 C8          -2.5490    -0.0010     5.0000 cc         1 GGJ       0.449800
     10 C9          -2.0900    -0.6600     6.1690 cd         1 GGJ      -0.343300
     11 C10         -3.0090    -0.4040     7.1700 cc         1 GGJ       0.215300
     12 N11         -3.9800     0.3730     6.6390 na         1 GGJ      -0.073600
     13 N12         -3.6720     0.6150     5.2950 nd         1 GGJ      -0.523800
     14 C13         -0.8570    -1.4720     6.2950 ca         1 GGJ       0.014000
     15 C14          0.1750    -1.0480     7.1280 ca         1 GGJ      -0.127000
     16 C15          1.3300    -1.8150     7.2420 cp         1 GGJ      -0.040000
     17 C16          1.4480    -3.0030     6.5220 ca         1 GGJ      -0.128000
     18 C17          0.4220    -3.4190     5.6960 ca         1 GGJ      -0.130000
     19 C18         -0.7290    -2.6650     5.5840 ca         1 GGJ      -0.114000
     20 C19          2.4340    -1.3700     8.1280 cp         1 GGJ      -0.030000
     21 C20          3.5920    -2.1350     8.2370 ca         1 GGJ      -0.137000
     22 C21          4.6210    -1.7140     9.0670 ca         1 GGJ       0.164600
     23 C22          4.4930    -0.5310     9.7860 ca         1 GGJ      -0.145000
     24 C23          3.3430     0.2260     9.6770 ca         1 GGJ      -0.124000
     25 C24          2.3170    -0.1830     8.8480 ca         1 GGJ      -0.130000
     26 N25          5.7850    -2.4770     9.1800 nv         1 GGJ      -0.991200
     27 N1          -2.9490    -0.8630     8.4780 nv         1 GGJ      -0.911200
     28 H1           1.7890     0.0030    -1.0210 h1         1 GGJ       0.041033
     29 H2           1.7890    -0.8860     0.5080 h1         1 GGJ       0.041033
     30 H3           1.7890     0.8830     0.5130 h1         1 GGJ       0.041033
     31 H4          -2.5930     0.0010     0.3720 ha         1 GGJ       0.140500
     32 H5          -3.7140    -0.0000     2.5640 ha         1 GGJ       0.147000
     33 H6           0.1080    -0.0050     4.5120 ha         1 GGJ       0.147000
     34 H7           1.2220    -0.0070     2.3150 ha         1 GGJ       0.140500
     35 H8          -4.7820     0.7210     7.1260 hn         1 GGJ       0.325700
     36 H9           0.0790    -0.1250     7.6860 ha         1 GGJ       0.138000
     37 H10          2.3480    -3.6000     6.6070 ha         1 GGJ       0.132000
     38 H11          0.5180    -4.3430     5.1400 ha         1 GGJ       0.130000
     39 H12         -1.5310    -2.9960     4.9350 ha         1 GGJ       0.140000
     40 H13          3.6900    -3.0570     7.6750 ha         1 GGJ       0.139000
     41 H14          5.2950    -0.2040    10.4350 ha         1 GGJ       0.134000
     42 H15          3.2490     1.1490    10.2380 ha         1 GGJ       0.129000
     43 H16          1.4170     0.4140     8.7660 ha         1 GGJ       0.133000
     44 H17          6.5550    -2.3090     8.5640 hn         1 GGJ       0.427300
     45 H18          5.8510    -3.1870     9.8820 hn         1 GGJ       0.427300
     46 H19         -2.2500    -1.5290     8.7430 hn         1 GGJ       0.443300
     47 H20         -3.6240    -0.5540     9.1490 hn         1 GGJ       0.443300
@<TRIPOS>BOND
     1    27    11 1
     2    19    18 ar
     3    19    14 ar
     4    11    12 1
     5    11    10 2
     6    12    13 1
     7    18    17 ar
     8    10    14 1
     9    10     9 1
    10    13     9 2
    11    14    15 ar
    12     9     6 1
    13     7     6 ar
    14     7     8 ar
    15    17    16 ar
    16     6     5 ar
    17     8     3 ar
    18    15    16 ar
    19    16    20 1
    20     5     4 ar
    21     3     4 ar
    22     3     1 1
    23     2     1 1
    24    20    25 ar
    25    20    21 ar
    26    25    24 ar
    27    21    22 ar
    28    24    23 ar
    29    22    23 ar
    30    22    26 1
    31     2    28 1
    32     2    29 1
    33     2    30 1
    34     4    31 1
    35     5    32 1
    36     7    33 1
    37     8    34 1
    38    12    35 1
    39    15    36 1
    40    17    37 1
    41    18    38 1
    42    19    39 1
    43    21    40 1
    44    23    41 1
    45    24    42 1
    46    25    43 1
    47    26    44 1
    48    26    45 1
    49    27    46 1
    50    27    47 1
@<TRIPOS>SUBSTRUCTURE
     1 GGJ         1 TEMP              0 ****  ****    0 ROOT
