@<TRIPOS>MOLECULE
GGK
   39    39     1     0     0
SMALL
bcc


@<TRIPOS>ATOM
      1 C4          -0.7190    -0.0000    -1.2380 cg         1 GGK      -0.158000
      2 C5           0.0000     0.0000     0.0000 ca         1 GGK       0.123000
      3 C6           1.3950     0.0000     0.0000 ca         1 GGK      -0.124500
      4 C11          1.3800     2.4420     4.6640 c3         1 GGK       0.203800
      5 C7           2.0820     0.0000     1.1960 ca         1 GGK       0.006500
      6 C8           1.3910     0.0010     2.3940 ca         1 GGK      -0.165500
      7 C9           0.0070     0.0010     2.4020 ca         1 GGK       0.006500
      8 C10         -0.6910     0.0080     1.2120 ca         1 GGK      -0.124500
      9 C12          1.8760     3.7070     5.3690 c3         1 GGK      -0.104400
     10 C13          0.6830     4.6030     5.7050 c3         1 GGK       0.576900
     11 N1          -1.6170     0.3180    -5.0240 n7         1 GGK      -0.566100
     12 N2           2.5230     1.5830     4.3420 n7         1 GGK      -0.589100
     13 C3          -1.3120     0.0200    -2.2510 c1         1 GGK      -0.144100
     14 C1          -3.4370     0.3340    -7.2530 c3         1 GGK       0.092700
     15 S1          -2.0990    -0.8530    -6.5250 s6         1 GGK       0.939900
     16 O1          -1.0930    -0.8010    -7.2670 o          1 GGK      -0.576800
     17 O2          -2.6190    -2.1670    -6.0670 o          1 GGK      -0.576800
     18 C2          -2.1330    -0.3420    -3.7860 c3         1 GGK       0.392900
     19 S2           2.2760     0.0010     3.9180 sy         1 GGK       1.046200
     20 O3           1.3950    -0.5430     4.8930 o          1 GGK      -0.583800
     21 O4           3.5570    -0.5440     3.6380 o          1 GGK      -0.583800
     22 F1          -0.1960     3.9140     6.5460 f          1 GGK      -0.206633
     23 F2           1.1370     5.7590     6.3490 f          1 GGK      -0.206633
     24 F3           0.0190     4.9570     4.5250 f          1 GGK      -0.206633
     25 H1           1.9370    -0.0290    -0.9380 ha         1 GGK       0.116500
     26 H2           0.5640     2.6970     3.9980 h1         1 GGK       0.039200
     27 H3           1.0350     1.7290     5.4020 h1         1 GGK       0.039200
     28 H4           3.1650    -0.0000     1.1990 ha         1 GGK       0.123000
     29 H5          -0.5290     0.0020     3.3430 ha         1 GGK       0.123000
     30 H6          -1.7740    -0.0160     1.2180 ha         1 GGK       0.116500
     31 H7           2.8100     4.0260     4.9230 hc         1 GGK       0.055200
     32 H8           2.0310     3.4960     6.4200 hc         1 GGK       0.055200
     33 H9          -0.7280     0.7770    -5.0130 hn         1 GGK       0.337800
     34 H10          3.4550     1.9020     4.5200 hn         1 GGK       0.350800
     35 H11         -3.0380     1.3400    -7.3030 h1         1 GGK       0.052033
     36 H12         -3.7100     0.0030    -8.2480 h1         1 GGK       0.052033
     37 H13         -4.3130     0.3240    -6.6160 h1         1 GGK       0.052033
     38 H14         -3.1750    -0.0670    -3.6760 h1         1 GGK       0.008700
     39 H15         -2.0860    -1.4130    -3.9400 h1         1 GGK       0.008700
@<TRIPOS>BOND
     1     1     2 1   
     2     1    13 3   
     3     2     3 ar  
     4     2     8 ar  
     5     3     5 ar  
     6     3    25 1   
     7     4     9 1   
     8     4    12 1   
     9     4    26 1   
    10     4    27 1   
    11     5     6 ar  
    12     5    28 1   
    13     6     7 ar  
    14     6    19 1   
    15     7     8 ar  
    16     7    29 1   
    17     8    30 1   
    18     9    10 1   
    19     9    31 1   
    20     9    32 1   
    21    10    22 1   
    22    10    23 1   
    23    10    24 1   
    24    11    15 1   
    25    11    18 1   
    26    11    33 1   
    27    12    19 1   
    28    12    34 1   
    29    13    18 1   
    30    14    15 1   
    31    14    35 1   
    32    14    36 1   
    33    14    37 1   
    34    15    16 2   
    35    15    17 2   
    36    18    38 1   
    37    18    39 1   
    38    19    20 2   
    39    19    21 2   
@<TRIPOS>SUBSTRUCTURE
     1 GGK         1 TEMP              0 ****  ****    0 ROOT
