@<TRIPOS>MOLECULE
GGN
   49    51     1     0     0
SMALL
bcc


@<TRIPOS>ATOM
      1 C4           0.0000     0.0000     0.0000 ca         1 GGN       0.377600
      2 C14          8.7710     0.0020     4.1280 ca         1 GGN      -0.059500
      3 C5           1.3800     0.0000     0.0000 ca         1 GGN      -0.195300
      4 C6           2.0570     0.0000     1.2240 ca         1 GGN      -0.104500
      5 C11          5.9480    -0.0000     1.0490 cc         1 GGN      -0.132400
      6 C7           1.2980     0.0010     2.4000 ca         1 GGN      -0.197300
      7 C8          -0.0780    -0.0000     2.3070 ca         1 GGN       0.401200
      8 C9           3.5020     0.0000     1.3630 cc         1 GGN       0.514900
      9 C10          5.5060     0.0010     2.3230 cd         1 GGN       0.379800
     10 C12          6.4830     0.0010     3.4100 ca         1 GGN      -0.106500
     11 C13          7.8480     0.0020     3.1130 ca         1 GGN      -0.096000
     12 N1          -0.6780     0.0050     1.1310 nb         1 GGN      -0.565000
     13 N2           4.1920     0.0010     2.4660 nd         1 GGN      -0.531000
     14 C3          -0.7430    -0.0010    -1.3110 c3         1 GGN      -0.070700
     15 N3           8.9270     0.0050     7.8350 ns         1 GGN      -0.203900
     16 C1          -2.4680    -1.1840    -2.6780 c3         1 GGN       0.005900
     17 C2          -1.7140    -1.1830    -1.3460 c3         1 GGN      -0.027400
     18 S1           4.6040    -0.0010    -0.0110 ss         1 GGN      -0.286300
     19 C15          8.3450     0.0030     5.4580 ca         1 GGN      -0.153600
     20 C16          6.9790     0.0030     5.7550 ca         1 GGN      -0.059500
     21 C17          6.0580     0.0020     4.7390 ca         1 GGN      -0.096000
     22 C18          9.3380     0.0040     6.5520 c          1 GGN       0.598700
     23 O1          10.5260     0.0030     6.2930 o          1 GGN      -0.641100
     24 C19          9.9120     0.0050     8.9190 c3         1 GGN       0.052000
     25 C20          9.1870     0.0060    10.2670 c3         1 GGN      -0.105400
     26 C21         10.2160     0.0060    11.3990 c3         1 GGN       0.577900
     27 F1           9.5530     0.0080    12.6310 f          1 GGN      -0.204967
     28 F2          11.0170    -1.1360    11.3010 f          1 GGN      -0.204967
     29 F3          11.0170     1.1480    11.3000 f          1 GGN      -0.204967
     30 H1           9.8290     0.0020     3.8970 ha         1 GGN       0.115000
     31 H2           1.9300    -0.0020    -0.9330 ha         1 GGN       0.126000
     32 H3           6.9880    -0.0000     0.7450 h4         1 GGN       0.172000
     33 H4           1.7840    -0.0010     3.3690 ha         1 GGN       0.132000
     34 H5          -0.6750     0.0030     3.2110 h4         1 GGN      -0.017900
     35 H6           8.1780     0.0010     2.0810 ha         1 GGN       0.118000
     36 H7          -0.0360    -0.0900    -2.1270 hc         1 GGN       0.023200
     37 H8          -1.2970     0.9240    -1.4130 hc         1 GGN       0.023200
     38 H9           7.9490     0.0050     8.0470 hn         1 GGN       0.181500
     39 H10         -2.9360    -0.2180    -2.8280 hc         1 GGN       0.000367
     40 H11         -1.7740    -1.3790    -3.4860 hc         1 GGN       0.000367
     41 H12         -3.2290    -1.9540    -2.6610 hc         1 GGN       0.000367
     42 H13         -1.1600    -2.1090    -1.2450 hc         1 GGN       0.021200
     43 H14         -2.4210    -1.0940    -0.5310 hc         1 GGN       0.021200
     44 H15          6.6490     0.0040     6.7860 ha         1 GGN       0.115000
     45 H16          4.9990     0.0020     4.9680 ha         1 GGN       0.118000
     46 H17         10.5330     0.8890     8.8420 h1         1 GGN       0.041700
     47 H18         10.5320    -0.8800     8.8440 h1         1 GGN       0.041700
     48 H19          8.5670     0.8910    10.3430 hc         1 GGN       0.051700
     49 H20          8.5650    -0.8780    10.3440 hc         1 GGN       0.051700
@<TRIPOS>BOND
     1     1     3 ar  
     2     1    12 ar  
     3     1    14 1   
     4     2    11 ar  
     5     2    19 ar  
     6     2    30 1   
     7     3     4 ar  
     8     3    31 1   
     9     4     6 ar  
    10     4     8 1   
    11     5     9 2   
    12     5    18 1   
    13     5    32 1   
    14     6     7 ar  
    15     6    33 1   
    16     7    12 ar  
    17     7    34 1   
    18     8    13 2   
    19     8    18 1   
    20     9    10 1   
    21     9    13 1   
    22    10    11 ar  
    23    10    21 ar  
    24    11    35 1   
    25    14    17 1   
    26    14    36 1   
    27    14    37 1   
    28    15    22 1   
    29    15    24 1   
    30    15    38 1   
    31    16    17 1   
    32    16    39 1   
    33    16    40 1   
    34    16    41 1   
    35    17    42 1   
    36    17    43 1   
    37    19    20 ar  
    38    19    22 1   
    39    20    21 ar  
    40    20    44 1   
    41    21    45 1   
    42    22    23 2   
    43    24    25 1   
    44    24    46 1   
    45    24    47 1   
    46    25    26 1   
    47    25    48 1   
    48    25    49 1   
    49    26    27 1   
    50    26    28 1   
    51    26    29 1   
@<TRIPOS>SUBSTRUCTURE
     1 GGN         1 TEMP              0 ****  ****    0 ROOT
