@<TRIPOS>MOLECULE
molecule
   49    51     1     0     0
SMALL
bcc


@<TRIPOS>ATOM
      1 C4           0.0000     0.0000     0.0000 ca         1 GGN       0.433600
      2 C14          8.7710     0.0020     4.1280 ca         1 GGN      -0.088000
      3 C5           1.3800     0.0000     0.0000 ca         1 GGN      -0.233300
      4 C6           2.0570     0.0000     1.2240 ca         1 GGN      -0.094500
      5 C11          5.9480    -0.0000     1.0490 cc         1 GGN      -0.199400
      6 C7           1.2980     0.0010     2.4000 ca         1 GGN      -0.222300
      7 C8          -0.0780    -0.0000     2.3070 ca         1 GGN       0.420200
      8 C9           3.5020     0.0000     1.3630 cd         1 GGN       0.517900
      9 C10          5.5060     0.0010     2.3230 cc         1 GGN       0.416800
     10 C12          6.4830     0.0010     3.4100 ca         1 GGN      -0.095500
     11 C13          7.8480     0.0020     3.1130 ca         1 GGN      -0.118500
     12 N1          -0.6780     0.0050     1.1310 nb         1 GGN      -0.685000
     13 N2           4.1920     0.0010     2.4660 nc         1 GGN      -0.655000
     14 C3          -0.7430    -0.0010    -1.3110 c3         1 GGN      -0.125700
     15 N3           8.9270     0.0050     7.8350 ns         1 GGN      -0.587900
     16 C1          -2.4680    -1.1840    -2.6780 c3         1 GGN      -0.094100
     17 C2          -1.7140    -1.1830    -1.3460 c3         1 GGN      -0.078400
     18 S1           4.6040    -0.0010    -0.0110 ss         1 GGN      -0.174300
     19 C15          8.3450     0.0030     5.4580 ca         1 GGN      -0.144600
     20 C16          6.9790     0.0030     5.7550 ca         1 GGN      -0.088000
     21 C17          6.0580     0.0020     4.7390 ca         1 GGN      -0.118500
     22 C18          9.3380     0.0040     6.5520 c          1 GGN       0.675700
     23 O1          10.5260     0.0030     6.2930 o          1 GGN      -0.601100
     24 C19          9.9120     0.0050     8.9190 c3         1 GGN       0.113000
     25 C20          9.1870     0.0060    10.2670 c3         1 GGN      -0.156400
     26 C21         10.2160     0.0060    11.3990 c3         1 GGN       0.621900
     27 F1           9.5530     0.0080    12.6310 f          1 GGN      -0.223967
     28 F2          11.0170    -1.1360    11.3010 f          1 GGN      -0.223967
     29 F3          11.0170     1.1480    11.3000 f          1 GGN      -0.223967
     30 H1           9.8290     0.0020     3.8970 ha         1 GGN       0.143000
     31 H2           1.9300    -0.0020    -0.9330 ha         1 GGN       0.142000
     32 H3           6.9880    -0.0000     0.7450 h4         1 GGN       0.188000
     33 H4           1.7840    -0.0010     3.3690 ha         1 GGN       0.160000
     34 H5          -0.6750     0.0030     3.2110 h4         1 GGN       0.027100
     35 H6           8.1780     0.0010     2.0810 ha         1 GGN       0.145000
     36 H7          -0.0360    -0.0900    -2.1270 hc         1 GGN       0.055200
     37 H8          -1.2970     0.9240    -1.4130 hc         1 GGN       0.055200
     38 H9           7.9490     0.0050     8.0470 hn         1 GGN       0.316500
     39 H10         -2.9360    -0.2180    -2.8280 hc         1 GGN       0.034033
     40 H11         -1.7740    -1.3790    -3.4860 hc         1 GGN       0.034033
     41 H12         -3.2290    -1.9540    -2.6610 hc         1 GGN       0.034033
     42 H13         -1.1600    -2.1090    -1.2450 hc         1 GGN       0.052200
     43 H14         -2.4210    -1.0940    -0.5310 hc         1 GGN       0.052200
     44 H15          6.6490     0.0040     6.7860 ha         1 GGN       0.143000
     45 H16          4.9990     0.0020     4.9680 ha         1 GGN       0.145000
     46 H17         10.5330     0.8890     8.8420 h1         1 GGN       0.070700
     47 H18         10.5320    -0.8800     8.8440 h1         1 GGN       0.070700
     48 H19          8.5670     0.8910    10.3430 hc         1 GGN       0.081700
     49 H20          8.5650    -0.8780    10.3440 hc         1 GGN       0.081700
@<TRIPOS>BOND
     1    27    26 1
     2    23    22 2
     3    26    29 1
     4    26    28 1
     5    26    25 1
     6     2    11 ar
     7     2    19 ar
     8    22    19 1
     9    22    15 1
    10    25    24 1
    11    24    15 1
    12    11    10 ar
    13     7     6 ar
    14     7    12 ar
    15    19    20 ar
    16     6     4 ar
    17    12     1 ar
    18    13     9 1
    19    13     8 2
    20    10     9 1
    21    10    21 ar
    22    20    21 ar
    23     4     8 1
    24     4     3 ar
    25     9     5 2
    26     1     3 ar
    27     1    14 1
    28     8    18 1
    29    14    17 1
    30    17    16 1
    31     5    18 1
    32     2    30 1
    33     3    31 1
    34     5    32 1
    35     6    33 1
    36     7    34 1
    37    11    35 1
    38    14    36 1
    39    14    37 1
    40    15    38 1
    41    16    39 1
    42    16    40 1
    43    16    41 1
    44    17    42 1
    45    17    43 1
    46    20    44 1
    47    21    45 1
    48    24    46 1
    49    24    47 1
    50    25    48 1
    51    25    49 1
@<TRIPOS>SUBSTRUCTURE
     1 GGN         1 TEMP              0 ****  ****    0 ROOT
