@<TRIPOS>MOLECULE
GGO
   48    51     1     0     0
SMALL
bcc


@<TRIPOS>ATOM
      1 C5           0.0000     0.0000     0.0000 c3         1 GGO       0.043000
      2 C6           1.5260     0.0000     0.0000 c3         1 GGO       0.015900
      3 C7           2.1150     0.0000     1.3890 ca         1 GGO      -0.111300
      4 C8           2.3800     1.2230     2.0140 ca         1 GGO      -0.087000
      5 C10          3.1830     0.0350     3.9080 ca         1 GGO       0.065100
      6 C15          2.3800    -1.2120     2.0120 ca         1 GGO      -0.098000
      7 C20         -1.9820    -0.2230    -5.4450 ca         1 GGO      -0.202300
      8 C21         -3.3740    -0.2070    -5.4170 ca         1 GGO      -0.092000
      9 C22         -4.0920    -0.2120    -6.6130 ca         1 GGO       0.092900
     10 C24         -3.4150    -0.2320    -7.8330 ca         1 GGO       0.149900
     11 C26         -2.0200    -0.2470    -7.8560 ca         1 GGO      -0.128000
     12 N           -1.2640    -2.6950    -3.8890 nz         1 GGO       0.091400
     13 C           -1.4960    -1.4140    -3.2180 c3         1 GGO      -0.097500
     14 C3          -0.5710    -1.3310    -2.0050 c3         1 GGO       0.069000
     15 N4          -0.5600    -0.0270    -1.3450 n          1 GGO      -0.173800
     16 C9           2.9240     1.2460     3.3000 ca         1 GGO      -0.079000
     17 O            3.7080    -0.1380     5.1520 os         1 GGO      -0.282900
     18 C12          3.7460    -1.5780     5.2370 c3         1 GGO       0.403200
     19 O13          3.2450    -2.2340     4.0530 os         1 GGO      -0.291900
     20 C14          2.9170    -1.1620     3.2820 ca         1 GGO       0.062100
     21 C16         -0.8110     1.1700    -2.0090 c          1 GGO       0.639500
     22 O17         -0.6000     2.2860    -1.5270 o          1 GGO      -0.588500
     23 C18         -1.4850     1.0730    -3.3650 c3         1 GGO      -0.105400
     24 C19         -1.2020    -0.2170    -4.1390 c3         1 GGO       0.023600
     25 F           -5.4310    -0.1980    -6.5890 f          1 GGO      -0.087900
     26 F25         -4.1040    -0.2360    -8.9800 f          1 GGO      -0.082900
     27 C27         -1.3020    -0.2430    -6.6610 ca         1 GGO       0.132900
     28 F28          0.0380    -0.2580    -6.6930 f          1 GGO      -0.105900
     29 H51         -0.3500     0.8920     0.5060 h1         1 GGO       0.044200
     30 H52         -0.3500    -0.8700     0.5420 h1         1 GGO       0.044200
     31 H61          1.8740    -0.8810    -0.5260 hc         1 GGO       0.018700
     32 H62          1.8740     0.8810    -0.5260 hc         1 GGO       0.018700
     33 H8           2.1900     2.1510     1.4900 ha         1 GGO       0.118000
     34 H15          1.8980    -2.1170     1.6630 ha         1 GGO       0.112000
     35 H21         -3.8970    -0.1920    -4.4690 ha         1 GGO       0.133000
     36 H26         -1.4940    -0.2620    -8.8030 ha         1 GGO       0.158000
     37 HN1         -0.3550    -2.6930    -4.3070 hn         1 GGO       0.226800
     38 HN2         -1.3210    -3.4370    -3.2200 hn         1 GGO       0.226800
     39 H           -2.5250    -1.3610    -2.8840 hx         1 GGO       0.100700
     40 H31          0.4380    -1.5590    -2.3280 h1         1 GGO       0.026200
     41 H32         -0.8840    -2.0770    -1.2850 h1         1 GGO       0.026200
     42 H9           3.1360     2.1820     3.8020 ha         1 GGO       0.128000
     43 H121         4.7780    -1.8780     5.3750 h2         1 GGO       0.016700
     44 H122         3.1300    -1.8800     6.0740 h2         1 GGO       0.016700
     45 H181        -1.1540     1.9090    -3.9680 hc         1 GGO       0.065200
     46 H182        -2.5550     1.1520    -3.2180 hc         1 GGO       0.065200
     47 H19         -0.1460    -0.2360    -4.3780 hc         1 GGO       0.057700
     48 HN3         -1.9580    -2.8320    -4.5970 hn         1 GGO       0.226800
@<TRIPOS>BOND
     1     1     2 1   
     2     1    15 1   
     3     1    29 1   
     4     1    30 1   
     5     2     3 1   
     6     2    31 1   
     7     2    32 1   
     8     3     4 ar  
     9     3     6 ar  
    10     4    16 ar  
    11     4    33 1   
    12     5    16 ar  
    13     5    17 1   
    14     5    20 ar  
    15     6    20 ar  
    16     6    34 1   
    17     7     8 ar  
    18     7    24 1   
    19     7    27 ar  
    20     8     9 ar  
    21     8    35 1   
    22     9    10 ar  
    23     9    25 1   
    24    10    11 ar  
    25    10    26 1   
    26    11    27 ar  
    27    11    36 1   
    28    12    13 1   
    29    12    37 1   
    30    12    38 1   
    31    12    48 1   
    32    13    14 1   
    33    13    24 1   
    34    13    39 1   
    35    14    15 1   
    36    14    40 1   
    37    14    41 1   
    38    15    21 1   
    39    16    42 1   
    40    17    18 1   
    41    18    19 1   
    42    18    43 1   
    43    18    44 1   
    44    19    20 1   
    45    21    22 2   
    46    21    23 1   
    47    23    24 1   
    48    23    45 1   
    49    23    46 1   
    50    24    47 1   
    51    27    28 1   
@<TRIPOS>SUBSTRUCTURE
     1 GGO         1 TEMP              0 ****  ****    0 ROOT
