@<TRIPOS>MOLECULE
molecule
   62    61     1     0     0
SMALL
bcc


@<TRIPOS>ATOM
      1 C1           0.0000     0.0000     0.0000 c3         1 GGS       0.155900
      2 S1           1.8140     0.0000     0.0000 ss         1 GGS      -0.594500
      3 C2          -0.5020     0.0000     1.4210 c2         1 GGS      -0.077200
      4 C3          -1.1900     1.0190     1.8730 c2         1 GGS      -0.229400
      5 C4          -1.8150     0.9590     3.2430 c3         1 GGS      -0.030900
      6 C5          -1.3570     2.2530     1.0220 c3         1 GGS      -0.025200
      7 C6          -2.6790     2.1690     0.2560 c3         1 GGS      -0.055200
      8 C7          -2.8450     3.4020    -0.5940 c2         1 GGS      -0.136200
      9 C8          -3.9440     4.1100    -0.5140 c2         1 GGS      -0.180400
     10 C9          -4.0460     5.4280    -1.2380 c3         1 GGS      -0.060200
     11 PA           2.2910    -1.9950     0.5340 p5         1 GGS       1.200800
     12 PB           4.8710    -3.4040     0.9120 p5         1 GGS       1.297900
     13 C10         -5.1060     3.6070     0.3030 c3         1 GGS      -0.040900
     14 C11         -4.7170     5.2130    -2.5950 c3         1 GGS      -0.082200
     15 C12         -4.8210     6.5310    -3.3190 c2         1 GGS      -0.559200
     16 C13         -4.1940     6.7040    -4.4570 c2         1 GGS       0.000600
     17 C14         -3.3430     5.5970    -5.0240 c3         1 GGS      -0.125900
     18 C15         -4.3250     8.0090    -5.1980 c3         1 GGS      -0.004200
     19 C16         -3.1530     8.9220    -4.8340 c3         1 GGS      -0.052200
     20 C17         -3.2850    10.2280    -5.5760 c2         1 GGS      -0.523200
     21 C18         -3.2870    11.3590    -4.9150 c2         1 GGS      -0.062400
     22 C19         -2.9520    11.3750    -3.4460 c3         1 GGS      -0.069400
     23 O1A          1.7220    -2.2980     1.8680 o          1 GGS      -0.769500
     24 O1B          4.3890    -4.6170     0.2160 o          1 GGS      -0.830500
     25 C20         -3.6250    12.6450    -5.6240 c3         1 GGS      -0.069400
     26 O2A          1.6720    -3.0060    -0.5560 o          1 GGS      -0.769500
     27 O2B          6.3620    -3.0540     0.4120 o          1 GGS      -0.830500
     28 O3A          3.8900    -2.1700     0.5820 os         1 GGS      -0.688800
     29 O3B          4.8870    -3.6660     2.5000 o          1 GGS      -0.830500
     30 H1          -0.3610    -0.8850    -0.5110 h1         1 GGS       0.054200
     31 H1A         -0.3610     0.8840    -0.5110 h1         1 GGS       0.054200
     32 H2          -0.3840    -0.8850     2.0340 ha         1 GGS       0.179000
     33 H4          -2.0800     1.9600     3.5630 hc         1 GGS       0.022033
     34 H4A         -1.1100     0.5310     3.9440 hc         1 GGS       0.022033
     35 H4B         -2.7070     0.3450     3.2060 hc         1 GGS       0.022033
     36 H5          -1.3620     3.1310     1.6570 hc         1 GGS       0.048200
     37 H5A         -0.5350     2.3210     0.3190 hc         1 GGS       0.048200
     38 H6          -3.5000     2.1020     0.9590 hc         1 GGS       0.050200
     39 H6A         -2.6740     1.2910    -0.3790 hc         1 GGS       0.050200
     40 H7          -2.0110     3.7660    -1.1830 ha         1 GGS       0.124000
     41 H9          -4.6370     6.1190    -0.6490 hc         1 GGS       0.050200
     42 H9A         -3.0540     5.8370    -1.3860 hc         1 GGS       0.050200
     43 H10         -4.8870     3.7290     1.3570 hc         1 GGS       0.035033
     44 H10A        -5.2720     2.5580     0.0880 hc         1 GGS       0.035033
     45 H10B        -5.9960     4.1710     0.0520 hc         1 GGS       0.035033
     46 H11         -4.1270     4.5230    -3.1850 hc         1 GGS       0.055200
     47 H11A        -5.7090     4.8040    -2.4470 hc         1 GGS       0.055200
     48 H12         -3.9710     6.2430    -2.7120 ha         1 GGS       0.338000
     49 H14         -2.5280     5.3820    -4.3430 hc         1 GGS       0.045033
     50 H14A        -2.9410     5.9060    -5.9810 hc         1 GGS       0.045033
     51 H14B        -3.9470     4.7080    -5.1560 hc         1 GGS       0.045033
     52 H15         -4.3190     7.8210    -6.2650 hc         1 GGS       0.058700
     53 H15A        -5.2570     8.4890    -4.9220 hc         1 GGS       0.058700
     54 H16         -3.1600     9.1110    -3.7670 hc         1 GGS       0.016700
     55 H16A        -2.2220     8.4430    -5.1110 hc         1 GGS       0.016700
     56 H17         -2.3060     9.8430    -5.3170 ha         1 GGS       0.249000
     57 H19         -2.0650    10.7770    -3.2710 hc         1 GGS       0.030033
     58 H19A        -3.7810    10.9640    -2.8830 hc         1 GGS       0.030033
     59 H19B        -2.7690    12.3940    -3.1280 hc         1 GGS       0.030033
     60 H20         -3.8890    12.4310    -6.6530 hc         1 GGS       0.030033
     61 H20A        -4.4610    13.1220    -5.1280 hc         1 GGS       0.030033
     62 H20B        -2.7670    13.3060    -5.6020 hc         1 GGS       0.030033
@<TRIPOS>BOND
     1     1     2 1
     2     1     3 1
     3     2    11 1
     4     3     4 2
     5     4     5 1
     6     4     6 1
     7     6     7 1
     8     7     8 1
     9     8     9 2
    10     9    10 1
    11     9    13 1
    12    10    14 1
    13    11    23 1
    14    11    26 1
    15    11    28 1
    16    12    24 1
    17    12    27 1
    18    12    28 1
    19    12    29 1
    20    14    15 1
    21    15    16 2
    22    16    17 1
    23    16    18 1
    24    18    19 1
    25    19    20 1
    26    20    21 2
    27    21    22 1
    28    21    25 1
    29     1    30 1
    30     1    31 1
    31     3    32 1
    32     5    33 1
    33     5    34 1
    34     5    35 1
    35     6    36 1
    36     6    37 1
    37     7    38 1
    38     7    39 1
    39     8    40 1
    40    10    41 1
    41    10    42 1
    42    13    43 1
    43    13    44 1
    44    13    45 1
    45    14    46 1
    46    14    47 1
    47    15    48 1
    48    17    49 1
    49    17    50 1
    50    17    51 1
    51    18    52 1
    52    18    53 1
    53    19    54 1
    54    19    55 1
    55    20    56 1
    56    22    57 1
    57    22    58 1
    58    22    59 1
    59    25    60 1
    60    25    61 1
    61    25    62 1
@<TRIPOS>SUBSTRUCTURE
     1 GGS         1 TEMP              0 ****  ****    0 ROOT
