@<TRIPOS>MOLECULE
molecule
   60    62     1     0     0
SMALL
bcc


@<TRIPOS>ATOM
      1 C01          0.0000     0.0000     0.0000 c3         1 GGY      -0.134100
      2 C02          1.5290     0.0000     0.0000 c3         1 GGY       0.315300
      3 C03          2.0320     0.0000     1.4210 c2         1 GGY      -0.189200
      4 C04          2.7180    -1.0210     1.8720 c2         1 GGY      -0.175200
      5 C05          3.1190    -2.1330     0.9380 c3         1 GGY       0.633100
      6 F06          3.8350    -1.6010    -0.1400 f          1 GGY      -0.208633
      7 F07          3.9200    -3.0530     1.6220 f          1 GGY      -0.208633
      8 F08          1.9710    -2.7780     0.4610 f          1 GGY      -0.208633
      9 O09          2.0060     1.1680    -0.6730 os         1 GGY      -0.331900
     10 C10          2.1080     1.1020    -2.0240 ca         1 GGY       0.242100
     11 C11          1.6520    -0.0160    -2.7020 ca         1 GGY      -0.209000
     12 C12          1.7610    -0.0780    -4.0900 cp         1 GGY       0.117000
     13 C13          1.2720    -1.2720    -4.8170 cp         1 GGY      -0.238300
     14 C14          0.4260    -1.1340    -5.9150 ca         1 GGY      -0.059000
     15 C15         -0.0070    -2.2940    -6.5670 ca         1 GGY      -0.124300
     16 C16         -0.9050    -2.2030    -7.7390 cc         1 GGY      -0.011100
     17 C17         -1.3800    -3.2510    -8.4380 cd         1 GGY      -0.104000
     18 C18         -2.2050    -2.9160    -9.4920 cd         1 GGY      -0.100300
     19 C19         -2.8330    -3.9510   -10.3900 c3         1 GGY       0.223100
     20 N20         -4.1360    -4.3480    -9.8430 n3         1 GGY      -0.729600
     21 C21         -5.0870    -3.2290    -9.8810 c3         1 GGY       0.150100
     22 C22         -4.6710    -5.5180   -10.5520 c3         1 GGY       0.150100
     23 C23         -2.4050    -1.6050    -9.6590 cc         1 GGY      -0.049100
     24 S24         -1.5250    -0.7090    -8.4290 ss         1 GGY      -0.164800
     25 C25          0.4200    -3.5370    -6.1000 ca         1 GGY       0.477200
     26 N26          1.2210    -3.6300    -5.0570 nb         1 GGY      -0.699000
     27 C27          1.6600    -2.5590    -4.4140 ca         1 GGY       0.703200
     28 N28          2.5060    -2.7130    -3.3260 nv         1 GGY      -1.069500
     29 C29          2.3290     0.9860    -4.7960 ca         1 GGY      -0.145000
     30 C30          2.7810     2.0890    -4.1330 ca         1 GGY      -0.082000
     31 C31          2.6730     2.1670    -2.7420 ca         1 GGY      -0.260600
     32 C32          3.1560     3.3630    -2.0290 c          1 GGY       0.501700
     33 N33          3.6990     4.3850    -2.7190 nz         1 GGY      -0.676400
     34 O34          3.0650     3.4260    -0.8170 o          1 GGY      -0.407100
     35 H011        -0.3610     0.8330    -0.5910 hc         1 GGY       0.071033
     36 H012        -0.3610    -0.9280    -0.4260 hc         1 GGY       0.071033
     37 H013        -0.3610     0.0950     1.0170 hc         1 GGY       0.071033
     38 H02          1.8910    -0.8840    -0.5110 h1         1 GGY       0.083700
     39 H03          2.6640     0.2990     0.5930 ha         1 GGY       0.071000
     40 H04          2.0380    -1.8250     1.6190 ha         1 GGY       0.115000
     41 H11          1.1340    -0.8010    -2.1640 ha         1 GGY       0.174000
     42 H29          2.4140     0.9320    -5.8740 ha         1 GGY       0.165000
     43 H14          0.3120    -0.1690    -6.3930 ha         1 GGY       0.146000
     44 H25          0.0860    -4.4380    -6.5990 h4         1 GGY       0.045100
     45 H17         -1.1340    -4.2770    -8.1920 ha         1 GGY       0.156000
     46 H191        -2.9690    -3.5340   -11.3810 h1         1 GGY       0.044700
     47 H192        -2.1870    -4.8180   -10.4490 h1         1 GGY       0.044700
     48 H23         -3.0220    -1.1620   -10.4320 h4         1 GGY       0.180000
     49 H211        -6.0980    -3.6120    -9.8130 h1         1 GGY       0.035533
     50 H212        -4.9690    -2.6860   -10.8110 h1         1 GGY       0.035533
     51 H213        -4.8960    -2.5640    -9.0470 h1         1 GGY       0.035533
     52 H221        -3.9490    -6.3250   -10.5130 h1         1 GGY       0.035533
     53 H222        -4.8660    -5.2560   -11.5850 h1         1 GGY       0.035533
     54 H223        -5.5930    -5.8360   -10.0800 h1         1 GGY       0.035533
     55 H281         2.1860    -3.1930    -2.5090 hn         1 GGY       0.441800
     56 H282         3.4580    -2.4110    -3.3880 hn         1 GGY       0.441800
     57 H30          3.2190     2.9100    -4.6880 ha         1 GGY       0.113000
     58 H331         3.0260     4.7450    -3.3660 hn         1 GGY       0.474467
     59 H332         4.5030     4.0610    -3.2190 hn         1 GGY       0.474467
     60 H333         3.9700     5.1090    -2.0830 hn         1 GGY       0.474467
@<TRIPOS>BOND
     1     1     2 1
     2     2     3 1
     3     2     9 1
     4     3     4 2
     5     4     5 1
     6     5     6 1
     7     5     7 1
     8     5     8 1
     9     9    10 1
    10    10    11 ar
    11    10    31 ar
    12    11    12 ar
    13    12    13 1
    14    12    29 ar
    15    13    14 ar
    16    13    27 ar
    17    14    15 ar
    18    15    16 1
    19    15    25 ar
    20    16    17 2
    21    16    24 1
    22    17    18 1
    23    18    19 1
    24    18    23 2
    25    19    20 1
    26    20    21 1
    27    20    22 1
    28    23    24 1
    29    25    26 ar
    30    26    27 ar
    31    27    28 1
    32    29    30 ar
    33    30    31 ar
    34    31    32 1
    35    32    33 1
    36    32    34 2
    37     1    35 1
    38     1    36 1
    39     1    37 1
    40     2    38 1
    41     3    39 1
    42     4    40 1
    43    11    41 1
    44    29    42 1
    45    14    43 1
    46    25    44 1
    47    17    45 1
    48    19    46 1
    49    19    47 1
    50    23    48 1
    51    21    49 1
    52    21    50 1
    53    21    51 1
    54    22    52 1
    55    22    53 1
    56    22    54 1
    57    28    55 1
    58    28    56 1
    59    30    57 1
    60    33    58 1
    61    33    59 1
    62    60    33 1
@<TRIPOS>SUBSTRUCTURE
     1 GGY         1 TEMP              0 ****  ****    0 ROOT
