@<TRIPOS>MOLECULE
GGY
   60    62     1     0     0
SMALL
bcc


@<TRIPOS>ATOM
      1 C01          0.0000     0.0000     0.0000 c3         1 GGY      -0.028100
      2 C02          1.5290     0.0000     0.0000 c3         1 GGY       0.164300
      3 C03          2.0320     0.0000     1.4210 c2         1 GGY      -0.065200
      4 C04          2.7180    -1.0210     1.8720 c2         1 GGY      -0.222200
      5 C05          3.1190    -2.1330     0.9380 c3         1 GGY       0.616100
      6 F06          3.8350    -1.6010    -0.1400 f          1 GGY      -0.204967
      7 F07          3.9200    -3.0530     1.6220 f          1 GGY      -0.204967
      8 F08          1.9710    -2.7780     0.4610 f          1 GGY      -0.204967
      9 O09          2.0060     1.1680    -0.6730 os         1 GGY      -0.264900
     10 C10          2.1080     1.1020    -2.0240 ca         1 GGY       0.279100
     11 C11          1.6520    -0.0160    -2.7020 ca         1 GGY      -0.217000
     12 C12          1.7610    -0.0780    -4.0900 cp         1 GGY       0.141000
     13 C13          1.2720    -1.2720    -4.8170 cp         1 GGY      -0.243300
     14 C14          0.4260    -1.1340    -5.9150 ca         1 GGY      -0.031000
     15 C15         -0.0070    -2.2940    -6.5670 ca         1 GGY      -0.116300
     16 C16         -0.9050    -2.2030    -7.7390 cc         1 GGY       0.040900
     17 C17         -1.3800    -3.2510    -8.4380 cd         1 GGY      -0.078000
     18 C18         -2.2050    -2.9160    -9.4920 cd         1 GGY      -0.105300
     19 C19         -2.8330    -3.9510   -10.3900 c3         1 GGY       0.224100
     20 N20         -4.1360    -4.3480    -9.8430 n3         1 GGY      -0.543600
     21 C21         -5.0870    -3.2290    -9.8810 c3         1 GGY       0.179600
     22 C22         -4.6710    -5.5180   -10.5520 c3         1 GGY       0.179600
     23 C23         -2.4050    -1.6050    -9.6590 cc         1 GGY       0.023900
     24 S24         -1.5250    -0.7090    -8.4290 ss         1 GGY      -0.279800
     25 C25          0.4200    -3.5370    -6.1000 ca         1 GGY       0.453200
     26 N26          1.2210    -3.6300    -5.0570 nb         1 GGY      -0.586000
     27 C27          1.6600    -2.5590    -4.4140 ca         1 GGY       0.524200
     28 N28          2.5060    -2.7130    -3.3260 nv         1 GGY      -0.629500
     29 C29          2.3290     0.9860    -4.7960 ca         1 GGY      -0.121000
     30 C30          2.7810     2.0890    -4.1330 ca         1 GGY      -0.049000
     31 C31          2.6730     2.1670    -2.7420 ca         1 GGY      -0.298600
     32 C32          3.1560     3.3630    -2.0290 c          1 GGY       0.353700
     33 N33          3.6990     4.3850    -2.7190 nz         1 GGY       0.201600
     34 O34          3.0650     3.4260    -0.8170 o          1 GGY      -0.435100
     35 H011        -0.3610    -0.7340    -0.7110 hc         1 GGY       0.027033
     36 H012        -0.3610     0.9820    -0.2800 hc         1 GGY       0.027033
     37 H013        -0.3610    -0.2480     0.9910 hc         1 GGY       0.027033
     38 H02          1.8910    -0.8840    -0.5110 h1         1 GGY       0.047700
     39 H03          1.7450     0.7980     2.0950 ha         1 GGY       0.129000
     40 H04          3.0780    -1.0200     2.8930 ha         1 GGY       0.153000
     41 H11          1.1410    -0.8040    -2.1630 ha         1 GGY       0.162000
     42 H29          2.4140     0.9320    -5.8740 ha         1 GGY       0.134000
     43 H14          0.3130    -0.1690    -6.3940 ha         1 GGY       0.123000
     44 H25          0.0860    -4.4380    -6.5990 h4         1 GGY      -0.003900
     45 H17         -1.1340    -4.2770    -8.1920 ha         1 GGY       0.132000
     46 H191        -2.1870    -4.8180   -10.4490 h1         1 GGY       0.016200
     47 H192        -2.9690    -3.5340   -11.3810 h1         1 GGY       0.016200
     48 H23         -3.0220    -1.1620   -10.4320 h4         1 GGY       0.158000
     49 H211        -4.9880    -2.7020   -10.8230 h1         1 GGY       0.004200
     50 H212        -6.0970    -3.6100    -9.7850 h1         1 GGY       0.004200
     51 H213        -4.8790    -2.5490    -9.0640 h1         1 GGY       0.004200
     52 H221        -3.9400    -6.3170   -10.5320 h1         1 GGY       0.004200
     53 H222        -4.8860    -5.2510   -11.5790 h1         1 GGY       0.004200
     54 H223        -5.5820    -5.8490   -10.0670 h1         1 GGY       0.004200
     55 H281         3.4480    -2.3790    -3.3750 hn         1 GGY       0.282300
     56 H282         2.1960    -3.2150    -2.5180 hn         1 GGY       0.282300
     57 H30          3.2190     2.9100    -4.6880 ha         1 GGY       0.080000
     58 H331         3.0010     4.7990    -3.3060 hn         1 GGY       0.243133
     59 H332         4.0460     5.0720    -2.0790 hn         1 GGY       0.243133
     60 H333         4.4510     4.0450    -3.2840 hn         1 GGY       0.243133
@<TRIPOS>BOND
     1     1     2 1   
     2     1    35 1   
     3     1    36 1   
     4     1    37 1   
     5     2     3 1   
     6     2     9 1   
     7     2    38 1   
     8     3     4 2   
     9     3    39 1   
    10     4     5 1   
    11     4    40 1   
    12     5     6 1   
    13     5     7 1   
    14     5     8 1   
    15     9    10 1   
    16    10    11 ar  
    17    10    31 ar  
    18    11    12 ar  
    19    11    41 1   
    20    12    13 1   
    21    12    29 ar  
    22    13    14 ar  
    23    13    27 ar  
    24    14    15 ar  
    25    14    43 1   
    26    15    16 1   
    27    15    25 ar  
    28    16    17 2   
    29    16    24 1   
    30    17    18 1   
    31    17    45 1   
    32    18    19 1   
    33    18    23 2   
    34    19    20 1   
    35    19    46 1   
    36    19    47 1   
    37    20    21 1   
    38    20    22 1   
    39    21    49 1   
    40    21    50 1   
    41    21    51 1   
    42    22    52 1   
    43    22    53 1   
    44    22    54 1   
    45    23    24 1   
    46    23    48 1   
    47    25    26 ar  
    48    25    44 1   
    49    26    27 ar  
    50    27    28 1   
    51    28    55 1   
    52    28    56 1   
    53    29    30 ar  
    54    29    42 1   
    55    30    31 ar  
    56    30    57 1   
    57    31    32 1   
    58    32    33 1   
    59    32    34 2   
    60    33    58 1   
    61    33    59 1   
    62    33    60 1   
@<TRIPOS>SUBSTRUCTURE
     1 GGY         1 TEMP              0 ****  ****    0 ROOT
