@<TRIPOS>MOLECULE
molecule
   41    44     1     0     0
SMALL
bcc


@<TRIPOS>ATOM
      1 C2           0.0000     0.0000     0.0000 ca         1 GGZ       0.715900
      2 C4          -0.1620     0.0000     2.2060 ca         1 GGZ       0.491800
      3 C5           1.2140    -0.0000     2.3640 ca         1 GGZ      -0.186200
      4 C6           1.9800     0.0000     1.2020 ca         1 GGZ       0.785200
      5 C8           0.4000    -0.0010     4.3330 cc         1 GGZ       0.386700
      6 N1           1.3550     0.0000     0.0000 nb         1 GGZ      -0.803000
      7 P1          -5.1610     2.1040     3.4770 p5         1 GGZ       1.483500
      8 O2'         -3.7900     1.6830     4.2380 os         1 GGZ      -0.515200
      9 O1P         -6.4330     1.8880     4.2380 o          1 GGZ      -0.759300
     10 O3'         -4.9700     1.2170     2.1300 os         1 GGZ      -0.504200
     11 C3'         -3.7330     0.5110     2.1960 c3         1 GGZ       0.092100
     12 C4'         -3.9200    -0.8970     2.7360 c3         1 GGZ       0.097100
     13 C5'         -4.2070    -1.9200     1.6530 c3         1 GGZ       0.226400
     14 O5'         -4.3530    -3.1930     2.2580 os         1 GGZ      -0.554200
     15 P2          -3.3410    -4.3780     1.8180 p5         1 GGZ       1.279800
     16 O4P         -3.5370    -5.7070     2.4880 o          1 GGZ      -0.792500
     17 O5P         -3.4800    -4.4220     0.2050 o          1 GGZ      -0.792500
     18 O6P         -1.8980    -3.6740     2.0350 os         1 GGZ      -0.652100
     19 S2          -0.6280    -4.5450     1.4950 s6         1 GGZ       1.398300
     20 OS3         -0.7840    -4.7710     0.0700 o          1 GGZ      -0.691533
     21 OS2          0.6190    -3.5140     1.6920 o          1 GGZ      -0.691533
     22 OS1         -0.4170    -5.6590     2.4010 o          1 GGZ      -0.691533
     23 C2'         -2.8680     1.1620     3.2670 c3         1 GGZ       0.073100
     24 C1'         -2.0810     0.0010     3.8570 c3         1 GGZ       0.263800
     25 O4'         -2.6880    -1.2230     3.3960 os         1 GGZ      -0.320600
     26 N9          -0.6690    -0.0000     3.4750 na         1 GGZ      -0.258000
     27 N7           1.5500    -0.0010     3.6940 nd         1 GGZ      -0.558100
     28 N6           3.3850    -0.0000     1.2690 nv         1 GGZ      -1.001500
     29 N3          -0.8470     0.0000     1.0530 nb         1 GGZ      -0.725000
     30 H2          -0.3610     0.0500    -1.0200 h5         1 GGZ       0.039100
     31 H8           0.3180    -0.4820     5.3000 h5         1 GGZ       0.071800
     32 HO3P        -5.6430     4.1500     3.1670 ho         1 GGZ       0.451000
     33 H3'         -3.2300     0.5020     1.2370 h1         1 GGZ       0.147700
     34 H4'         -4.7250    -0.8970     3.4610 h1         1 GGZ       0.046700
     35 H5'1        -5.1230    -1.6560     1.1370 h1         1 GGZ       0.055700
     36 H5'2        -3.3860    -1.9430     0.9480 h1         1 GGZ       0.055700
     37 H2'         -2.2230     1.9310     2.8580 h1         1 GGZ       0.092700
     38 H1'         -2.1560     0.0430     4.9370 h2         1 GGZ       0.084700
     39 HN61         3.9250     0.0730     0.4290 hn         1 GGZ       0.435300
     40 HN62         3.8440    -0.0600     2.1560 hn         1 GGZ       0.435300
     41 O3P         -4.8870     3.6180     2.9830 oh         1 GGZ      -0.713400
@<TRIPOS>BOND
     1     1    29 ar
     2     1     6 ar
     3     1    30 1
     4     2    26 1
     5     2     3 ar
     6     2    29 ar
     7     3    27 1
     8     3     4 ar
     9     4    28 1
    10     4     6 ar
    11     5    27 2
    12     5    26 1
    13     5    31 1
    14    41     7 1
    15    41    32 1
    16     7    10 1
    17     7     9 2
    18     7     8 1
    19     8    23 1
    20    10    11 1
    21    11    12 1
    22    11    23 1
    23    11    33 1
    24    12    25 1
    25    12    13 1
    26    12    34 1
    27    13    14 1
    28    13    35 1
    29    13    36 1
    30    14    15 1
    31    15    16 1
    32    15    18 1
    33    15    17 1
    34    18    19 1
    35    19    22 1
    36    19    20 1
    37    19    21 1
    38    23    24 1
    39    23    37 1
    40    24    25 1
    41    24    26 1
    42    24    38 1
    43    28    39 1
    44    28    40 1
@<TRIPOS>SUBSTRUCTURE
     1 GGZ         1 TEMP              0 ****  ****    0 ROOT
