@<TRIPOS>MOLECULE
GH2
   43    44     1     0     0
SMALL
bcc


@<TRIPOS>ATOM
      1 C4           0.0000     0.0000     0.0000 c3         1 GH2      -0.077700
      2 C5           1.5070     0.0000     0.0000 cc         1 GH2       0.443700
      3 C6           3.5560    -0.0000     0.8820 cd         1 GH2       0.384800
      4 C11          6.3200     0.0110     4.1090 ca         1 GH2      -0.155600
      5 C7           3.9370    -0.0030    -0.4130 cc         1 GH2      -0.104400
      6 C8           4.5190     0.0030     2.0070 ca         1 GH2      -0.101500
      7 C9           5.8920    -0.0000     1.7500 ca         1 GH2      -0.093500
      8 C10          6.7840     0.0040     2.7890 ca         1 GH2      -0.060500
      9 C12          4.9460     0.0090     4.3650 ca         1 GH2      -0.060500
     10 C13          4.0550     0.0060     3.3230 ca         1 GH2      -0.093500
     11 N1           2.2410     0.0000     1.0570 nd         1 GH2      -0.536000
     12 N2           8.6060     0.0170     4.9820 ns         1 GH2      -0.205900
     13 C3          -0.5020     1.4210    -0.0060 c          1 GH2       0.692100
     14 C1          -3.7610     3.1380    -0.0130 c3         1 GH2      -0.003100
     15 O1          -1.8220     1.6650    -0.0070 os         1 GH2      -0.415900
     16 O2           0.2830     2.3400    -0.0110 o          1 GH2      -0.575000
     17 S1           2.4810    -0.0070    -1.4050 ss         1 GH2      -0.284300
     18 O3           6.8770     0.0160     6.3760 o          1 GH2      -0.640100
     19 C15          9.5590     0.0210     6.0930 c3         1 GH2       0.052000
     20 C16         10.9860     0.0230     5.5420 c3         1 GH2      -0.105400
     21 C17         11.9820     0.0270     6.7050 c3         1 GH2       0.577900
     22 F1          13.2870     0.0290     6.2000 f          1 GH2      -0.205300
     23 F2          11.7820     1.1700     7.4860 f          1 GH2      -0.205300
     24 F3          11.7870    -1.1140     7.4890 f          1 GH2      -0.205300
     25 H1          -0.3610    -0.5070     0.8870 hc         1 GH2       0.050200
     26 H2          -0.3610    -0.5140    -0.8820 hc         1 GH2       0.050200
     27 H3           4.9570    -0.0060    -0.7770 h4         1 GH2       0.163000
     28 H4           6.2510    -0.0050     0.7280 ha         1 GH2       0.118000
     29 H5           7.8490     0.0020     2.5890 ha         1 GH2       0.114500
     30 H6           4.5860     0.0110     5.3860 ha         1 GH2       0.114500
     31 H7           2.9900     0.0040     3.5220 ha         1 GH2       0.118000
     32 H8           8.9390     0.0180     4.0380 hn         1 GH2       0.180500
     33 H9          -4.0680     4.1770    -0.0180 hc         1 GH2       0.011367
     34 H10         -4.1590     2.6390    -0.8880 hc         1 GH2       0.011367
     35 H11         -4.1380     2.6550     0.8800 hc         1 GH2       0.011367
     36 H12         -1.8470     3.5440    -0.9010 h1         1 GH2       0.010700
     37 H13         -1.8460     3.5530     0.8680 h1         1 GH2       0.010700
     38 H14          9.4040     0.9060     6.6980 h1         1 GH2       0.041700
     39 H15          9.4080    -0.8630     6.7010 h1         1 GH2       0.041700
     40 H16         11.1370     0.9060     4.9340 hc         1 GH2       0.051700
     41 H17         11.1410    -0.8630     4.9370 hc         1 GH2       0.051700
     42 C14          7.2810     0.0150     5.2290 c          1 GH2       0.599700
     43 C2          -2.2340     3.0580    -0.0140 c3         1 GH2       0.228400
@<TRIPOS>BOND
     1     1     2 1   
     2     1    13 1   
     3     1    25 1   
     4     1    26 1   
     5     2    11 2   
     6     2    17 1   
     7     3     5 2   
     8     3     6 1   
     9     3    11 1   
    10     4     8 ar  
    11     4     9 ar  
    12     4    42 1   
    13     5    17 1   
    14     5    27 1   
    15     6     7 ar  
    16     6    10 ar  
    17     7     8 ar  
    18     7    28 1   
    19     8    29 1   
    20     9    10 ar  
    21     9    30 1   
    22    10    31 1   
    23    12    19 1   
    24    12    32 1   
    25    12    42 1   
    26    13    15 1   
    27    13    16 2   
    28    14    33 1   
    29    14    34 1   
    30    14    35 1   
    31    14    43 1   
    32    15    43 1   
    33    18    42 2   
    34    19    20 1   
    35    19    38 1   
    36    19    39 1   
    37    20    21 1   
    38    20    40 1   
    39    20    41 1   
    40    21    22 1   
    41    21    23 1   
    42    21    24 1   
    43    36    43 1   
    44    37    43 1   
@<TRIPOS>SUBSTRUCTURE
     1 GH2         1 TEMP              0 ****  ****    0 ROOT
