@<TRIPOS>MOLECULE
molecule
   43    44     1     0     0
SMALL
bcc


@<TRIPOS>ATOM
      1 C4           0.0000     0.0000     0.0000 c3         1 GH2      -0.144700
      2 C5           1.5070     0.0000     0.0000 cc         1 GH2       0.457700
      3 C6           3.5560    -0.0000     0.8820 cd         1 GH2       0.425800
      4 C11          6.3200     0.0110     4.1090 ca         1 GH2      -0.145600
      5 C7           3.9370    -0.0030    -0.4130 cc         1 GH2      -0.173400
      6 C8           4.5190     0.0030     2.0070 ca         1 GH2      -0.091500
      7 C9           5.8920    -0.0000     1.7500 ca         1 GH2      -0.116500
      8 C10          6.7840     0.0040     2.7890 ca         1 GH2      -0.089000
      9 C12          4.9460     0.0090     4.3650 ca         1 GH2      -0.089000
     10 C13          4.0550     0.0060     3.3230 ca         1 GH2      -0.116500
     11 N1           2.2410     0.0000     1.0570 nd         1 GH2      -0.665000
     12 N2           8.6060     0.0170     4.9820 ns         1 GH2      -0.588900
     13 C3          -0.5020     1.4210    -0.0060 c          1 GH2       0.631100
     14 C1          -3.7610     3.1380    -0.0130 c3         1 GH2      -0.096100
     15 O1          -1.8220     1.6650    -0.0070 os         1 GH2      -0.431900
     16 O2           0.2830     2.3400    -0.0110 o          1 GH2      -0.534000
     17 S1           2.4810    -0.0070    -1.4050 ss         1 GH2      -0.175300
     18 O3           6.8770     0.0160     6.3760 o          1 GH2      -0.600100
     19 C15          9.5590     0.0210     6.0930 c3         1 GH2       0.113000
     20 C16         10.9860     0.0230     5.5420 c3         1 GH2      -0.155400
     21 C17         11.9820     0.0270     6.7050 c3         1 GH2       0.621900
     22 F1          13.2870     0.0290     6.2000 f          1 GH2      -0.223967
     23 F2          11.7820     1.1700     7.4860 f          1 GH2      -0.223967
     24 F3          11.7870    -1.1140     7.4890 f          1 GH2      -0.223967
     25 H1          -0.3610    -0.5070     0.8870 hc         1 GH2       0.093700
     26 H2          -0.3610    -0.5140    -0.8820 hc         1 GH2       0.093700
     27 H3           4.9570    -0.0060    -0.7770 h4         1 GH2       0.183000
     28 H4           6.2510    -0.0050     0.7280 ha         1 GH2       0.146000
     29 H5           7.8490     0.0020     2.5890 ha         1 GH2       0.142000
     30 H6           4.5860     0.0110     5.3860 ha         1 GH2       0.142000
     31 H7           2.9900     0.0040     3.5220 ha         1 GH2       0.146000
     32 H8           8.9390     0.0180     4.0380 hn         1 GH2       0.314500
     33 H9          -4.0680     4.1770    -0.0180 hc         1 GH2       0.048367
     34 H10         -4.1590     2.6390    -0.8880 hc         1 GH2       0.048367
     35 H11         -4.1380     2.6550     0.8800 hc         1 GH2       0.048367
     36 H12         -1.8470     3.5440    -0.9010 h1         1 GH2       0.051200
     37 H13         -1.8460     3.5530     0.8680 h1         1 GH2       0.051200
     38 H14          9.4040     0.9060     6.6980 h1         1 GH2       0.070200
     39 H15          9.4080    -0.8630     6.7010 h1         1 GH2       0.070200
     40 H16         11.1370     0.9060     4.9340 hc         1 GH2       0.081200
     41 H17         11.1410    -0.8630     4.9370 hc         1 GH2       0.081200
     42 C14          7.2810     0.0150     5.2290 c          1 GH2       0.676700
     43 C2          -2.2340     3.0580    -0.0140 c3         1 GH2       0.147400
@<TRIPOS>BOND
     1    23    21 1
     2    22    21 1
     3    18    42 2
     4    21    24 1
     5    21    20 1
     6     8     7 ar
     7     8     4 ar
     8    20    19 1
     9    42     4 1
    10    42    12 1
    11    19    12 1
    12     7     6 ar
    13     4     9 ar
    14    16    13 2
    15     1    13 1
    16     1     2 1
    17    11     2 2
    18    11     3 1
    19     6     3 1
    20     6    10 ar
    21    13    15 1
    22     9    10 ar
    23     2    17 1
    24     3     5 2
    25    15    43 1
    26    43    14 1
    27     5    17 1
    28     1    25 1
    29     1    26 1
    30     5    27 1
    31     7    28 1
    32     8    29 1
    33     9    30 1
    34    10    31 1
    35    12    32 1
    36    14    33 1
    37    14    34 1
    38    14    35 1
    39    43    36 1
    40    43    37 1
    41    19    38 1
    42    19    39 1
    43    20    40 1
    44    20    41 1
@<TRIPOS>SUBSTRUCTURE
     1 GH2         1 TEMP              0 ****  ****    0 ROOT
