@<TRIPOS>MOLECULE
GH4
   48    51     1     0     0
SMALL
bcc


@<TRIPOS>ATOM
      1 C2           0.0000     0.0000     0.0000 ca         1 GH4      -0.089000
      2 C3           1.3860     0.0000     0.0000 ca         1 GH4       0.060100
      3 C5           3.5370    -0.4130     0.4330 c3         1 GH4       0.431200
      4 C9          -0.0030    -0.0130    -2.3960 ca         1 GH4      -0.103300
      5 C10         -0.7610    -0.0140    -3.6990 c3         1 GH4       0.202100
      6 C11          2.3260    -0.4960    -7.7200 ca         1 GH4      -0.177500
      7 C12          3.5310    -0.1970    -8.3240 ca         1 GH4      -0.058000
      8 C13          4.6310    -1.0080    -8.1150 ca         1 GH4      -0.146000
      9 C14          4.5280    -2.1220    -7.3010 ca         1 GH4      -0.058000
     10 C21         -1.7840    -2.1200    -3.4530 ca         1 GH4       0.492200
     11 C28         -1.3550    -3.1800    -2.6440 ca         1 GH4      -0.079700
     12 C1          -0.6910    -0.0070    -1.1970 ca         1 GH4      -0.104000
     13 O4           2.2900     0.0000     1.0230 os         1 GH4      -0.314900
     14 O6           3.4190    -0.0010    -0.9420 os         1 GH4      -0.312900
     15 C7           2.0790    -0.0010    -1.2080 ca         1 GH4       0.058100
     16 C8           1.3800    -0.0020    -2.4040 ca         1 GH4      -0.057000
     17 C15          3.3240    -2.4260    -6.6950 ca         1 GH4      -0.177500
     18 C16          2.2210    -1.6100    -6.8980 ca         1 GH4       0.149100
     19 O17          1.0360    -1.9080    -6.3030 os         1 GH4      -0.290900
     20 C19         -1.2280    -1.4040    -5.6250 c3         1 GH4       0.145800
     21 N20         -0.8720    -1.3910    -4.2000 nh         1 GH4      -0.490300
     22 N22         -3.0780    -1.8280    -3.4970 nb         1 GH4      -0.610000
     23 N23         -6.2550    -2.8370    -2.1710 n2         1 GH4      -0.597100
     24 C25         -3.9530    -2.5240    -2.7830 ca         1 GH4       0.499700
     25 N26         -3.5760    -3.5290    -2.0050 nb         1 GH4      -0.597000
     26 C27         -2.3030    -3.8790    -1.9160 ca         1 GH4       0.412200
     27 F29         -0.0470    -3.5110    -2.5750 f          1 GH4      -0.097900
     28 H1          -0.5420     0.0050     0.9380 ha         1 GH4       0.113000
     29 H2           3.6300    -1.4910     0.4870 h2         1 GH4       0.015200
     30 H3           4.3590     0.1120     0.9040 h2         1 GH4       0.015200
     31 H4          -0.2330     0.5930    -4.4240 h1         1 GH4       0.028200
     32 H5          -1.7520     0.3940    -3.5400 h1         1 GH4       0.028200
     33 H7           3.6150     0.6740    -8.9630 ha         1 GH4       0.100500
     34 H8           5.5760    -0.7710    -8.5900 ha         1 GH4       0.105000
     35 H9           5.3900    -2.7570    -7.1410 ha         1 GH4       0.100500
     36 H10         -1.7740     0.0250    -1.1960 ha         1 GH4       0.109000
     37 H11          1.9160     0.0600    -3.3430 ha         1 GH4       0.120000
     38 H12          3.2440    -3.2980    -6.0570 ha         1 GH4       0.117000
     39 H15         -1.5170    -2.4070    -5.9160 h1         1 GH4       0.029200
     40 H16         -2.0550    -0.7260    -5.7970 h1         1 GH4       0.029200
     41 H17         -5.9410    -3.5930    -1.5950 hn         1 GH4       0.333400
     42 H19         -2.0060    -4.7030    -1.2790 h4         1 GH4       0.003100
     43 C24         -5.3880    -2.1700    -2.8590 ce         1 GH4       0.332200
     44 C18         -0.0230    -0.9600    -6.4560 c3         1 GH4       0.196400
     45 H6           1.4650     0.1410    -7.8820 ha         1 GH4       0.117000
     46 H13          0.3110     0.0130    -6.1170 h1         1 GH4       0.007700
     47 H14         -0.3060    -0.9010    -7.5000 h1         1 GH4       0.007700
     48 H18         -5.7100    -1.3490    -3.4870 h4         1 GH4       0.001800
@<TRIPOS>BOND
     1     1     2 ar  
     2     1    12 ar  
     3     1    28 1   
     4     2    13 1   
     5     2    15 ar  
     6     3    13 1   
     7     3    14 1   
     8     3    29 1   
     9     3    30 1   
    10     4     5 1   
    11     4    12 ar  
    12     4    16 ar  
    13     5    21 1   
    14     5    31 1   
    15     5    32 1   
    16     6     7 ar  
    17     6    18 ar  
    18     6    45 1   
    19     7     8 ar  
    20     7    33 1   
    21     8     9 ar  
    22     8    34 1   
    23     9    17 ar  
    24     9    35 1   
    25    10    11 ar  
    26    10    21 1   
    27    10    22 ar  
    28    11    26 ar  
    29    11    27 1   
    30    12    36 1   
    31    14    15 1   
    32    15    16 ar  
    33    16    37 1   
    34    17    18 ar  
    35    17    38 1   
    36    18    19 1   
    37    19    44 1   
    38    20    21 1   
    39    20    39 1   
    40    20    40 1   
    41    20    44 1   
    42    22    24 ar  
    43    23    41 1   
    44    23    43 2   
    45    24    25 ar  
    46    24    43 1   
    47    25    26 ar  
    48    26    42 1   
    49    43    48 1   
    50    44    46 1   
    51    44    47 1   
@<TRIPOS>SUBSTRUCTURE
     1 GH4         1 TEMP              0 ****  ****    0 ROOT
