@<TRIPOS>MOLECULE
GH7
   19    20     1     0     0
SMALL
bcc


@<TRIPOS>ATOM
      1 N41          0.0000     0.0000     0.0000 n7         1 GH7      -0.319700
      2 C01          0.5760     0.6100     2.1840 c3         1 GH7       0.391900
      3 O02          0.9820     1.8600     2.7690 os         1 GH7      -0.429600
      4 C03          2.4010     1.7800     3.0180 c3         1 GH7       0.204400
      5 C04          2.9450     1.0340     1.7740 c3         1 GH7      -0.054400
      6 C05          1.8290     0.0000     1.5050 c3         1 GH7      -0.079700
      7 C06          1.4880     0.0000     0.0000 c3         1 GH7      -0.007500
      8 C07          2.0230    -1.2410    -0.6680 c          1 GH7       0.980600
      9 O40          1.3090    -2.2050    -0.8110 o          1 GH7      -0.881300
     10 O42         -0.3560     0.8910     1.1220 os         1 GH7      -0.326100
     11 H1          -0.3340     0.3940    -0.8580 hn         1 GH7       0.250800
     12 H011         0.1530    -0.0610     2.9230 h2         1 GH7       0.015700
     13 H031         2.8310     2.7720     3.0840 h1         1 GH7      -0.004800
     14 H032         2.5970     1.2110     3.9190 h1         1 GH7      -0.004800
     15 H042         3.8810     0.5380     2.0010 hc         1 GH7       0.030700
     16 H041         3.0510     1.7110     0.9350 hc         1 GH7       0.030700
     17 H051         2.0690    -0.9870     1.8830 hc         1 GH7       0.060700
     18 H2           1.8690     0.8950    -0.4770 h1         1 GH7       0.022700
     19 OXT          3.2910    -1.2740    -1.1070 o          1 GH7      -0.881300
@<TRIPOS>BOND
     1     1     7 1   
     2     1    10 1   
     3     1    11 1   
     4     2     3 1   
     5     2     6 1   
     6     2    10 1   
     7     2    12 1   
     8     3     4 1   
     9     4     5 1   
    10     4    13 1   
    11     4    14 1   
    12     5     6 1   
    13     5    15 1   
    14     5    16 1   
    15     6     7 1   
    16     6    17 1   
    17     7     8 1   
    18     7    18 1   
    19     8     9 1   
    20     8    19 1   
@<TRIPOS>SUBSTRUCTURE
     1 GH7         1 TEMP              0 ****  ****    0 ROOT
