@<TRIPOS>MOLECULE
GH8
   67    71     1     0     0
SMALL
bcc


@<TRIPOS>ATOM
      1 N1           0.0000     0.0000     0.0000 n3         1 GH8      -0.536600
      2 C4           1.4690     0.0000     0.0000 c3         1 GH8       0.141300
      3 C5           1.9800     0.0000     1.4430 c3         1 GH8      -0.041900
      4 C6           1.4490     1.2400     2.1660 c3         1 GH8       0.171800
      5 C7          -0.0800     1.2410     2.1100 c3         1 GH8      -0.041900
      6 C8          -0.5320     1.2050     0.6490 c3         1 GH8       0.141300
      7 C10          1.4540     3.6970     2.2380 c          1 GH8       0.644700
      8 C13          1.2120     4.5600     5.8920 cp         1 GH8      -0.097000
      9 C15          1.6410     2.1990     5.6770 ca         1 GH8      -0.157000
     10 C17          0.9790     5.7430     6.7550 cp         1 GH8       0.002000
     11 C20          0.5420     7.9560     8.3670 ca         1 GH8      -0.161600
     12 C21          0.5470     8.0940     6.9770 ca         1 GH8      -0.053000
     13 C22          0.7640     6.9950     6.1770 ca         1 GH8      -0.117000
     14 C24         -0.1230    11.5140     9.5220 c3         1 GH8       0.113300
     15 C26         -1.5870    13.0820     8.2340 ca         1 GH8      -0.084000
     16 C28         -0.6770    14.9690     7.0710 ca         1 GH8      -0.092000
     17 C1           0.0490    -1.4030    -2.0070 c3         1 GH8      -0.004600
     18 C2          -0.5260    -0.1390    -1.3640 c3         1 GH8       0.129500
     19 C3          -2.0520    -0.2420    -1.3160 c3         1 GH8      -0.004600
     20 C9           1.9810     2.4990     1.4680 c3         1 GH8      -0.172400
     21 O1           1.0630     4.6970     1.6750 o          1 GH8      -0.557100
     22 C11          1.4430     3.5790     3.7080 ca         1 GH8      -0.277600
     23 C12          1.2220     4.6980     4.5080 ca         1 GH8       0.007000
     24 C14          1.4210     3.3050     6.4680 ca         1 GH8      -0.028000
     25 C16          1.6570     2.3190     4.2930 ca         1 GH8       0.206100
     26 O2           1.8830     1.2280     3.5250 os         1 GH8      -0.295900
     27 C18          0.9690     5.6030     8.1430 ca         1 GH8      -0.117000
     28 C19          0.7530     6.7000     8.9440 ca         1 GH8      -0.053000
     29 C23          0.3100     9.1340     9.2270 c          1 GH8       0.595700
     30 O3           0.3010     9.0130    10.4360 o          1 GH8      -0.652100
     31 N2           0.1080    10.3450     8.6700 ns         1 GH8      -0.200900
     32 C25         -0.3180    12.7340     8.6590 ca         1 GH8      -0.128300
     33 C27         -1.7650    14.1990     7.4370 ca         1 GH8      -0.102000
     34 C29          0.5900    14.6230     7.5030 ca         1 GH8      -0.102000
     35 C30          0.7690    13.5040     8.2940 ca         1 GH8      -0.084000
     36 H2           1.8290     0.8860    -0.5090 h1         1 GH8       0.020950
     37 H3           1.8290    -0.8860    -0.5090 h1         1 GH8       0.020950
     38 H4           3.0630     0.0190     1.4420 hc         1 GH8       0.035450
     39 H5           1.6280    -0.8910     1.9490 hc         1 GH8       0.035450
     40 H6          -0.4570     2.1400     2.5830 hc         1 GH8       0.035450
     41 H7          -0.4600     0.3680     2.6270 hc         1 GH8       0.035450
     42 H8          -1.6150     1.1880     0.6080 h1         1 GH8       0.020950
     43 H9          -0.1610     2.0840     0.1350 h1         1 GH8       0.020950
     44 H10          1.8020     1.2310     6.1360 ha         1 GH8       0.122000
     45 H11          0.3830     9.0670     6.5290 ha         1 GH8       0.115500
     46 H12          0.7680     7.1020     5.0990 ha         1 GH8       0.115500
     47 H13         -1.0080    11.3530    10.1250 h1         1 GH8       0.029700
     48 H14          0.7330    11.6640    10.1700 h1         1 GH8       0.029700
     49 H16         -0.8170    15.8450     6.4490 ha         1 GH8       0.104000
     50 H17         -0.5840    -1.7100    -2.8300 hc         1 GH8       0.010367
     51 H18          0.0930    -2.1960    -1.2700 hc         1 GH8       0.010367
     52 H19          1.0470    -1.1990    -2.3760 hc         1 GH8       0.010367
     53 H20         -0.2410     0.7260    -1.9510 h1         1 GH8       0.006700
     54 H21         -2.4780     0.7510    -1.2340 hc         1 GH8       0.010367
     55 H22         -2.4110    -0.7150    -2.2210 hc         1 GH8       0.010367
     56 H23         -2.3470    -0.8330    -0.4570 hc         1 GH8       0.010367
     57 H24          1.6220     2.5320     0.4460 hc         1 GH8       0.058700
     58 H25          3.0640     2.4990     1.4840 hc         1 GH8       0.058700
     59 H26          1.1880     5.6850     4.0610 ha         1 GH8       0.127000
     60 H27          1.4100     3.2000     7.5460 ha         1 GH8       0.114000
     61 H28          1.1320     4.6300     8.5900 ha         1 GH8       0.115500
     62 H29          0.7480     6.5910    10.0220 ha         1 GH8       0.115500
     63 H30          0.1190    10.4450     7.6740 hn         1 GH8       0.183500
     64 H31         -2.7590    14.4710     7.1010 ha         1 GH8       0.105000
     65 H32          1.4430    15.2260     7.2160 ha         1 GH8       0.105000
     66 H33          1.7620    13.2330     8.6310 ha         1 GH8       0.108500
     67 H15         -2.4390    12.4790     8.5200 ha         1 GH8       0.108500
@<TRIPOS>BOND
     1     1     2 1   
     2     1     6 1   
     3     1    18 1   
     4     2     3 1   
     5     2    36 1   
     6     2    37 1   
     7     3     4 1   
     8     3    38 1   
     9     3    39 1   
    10     4     5 1   
    11     4    20 1   
    12     4    26 1   
    13     5     6 1   
    14     5    40 1   
    15     5    41 1   
    16     6    42 1   
    17     6    43 1   
    18     7    20 1   
    19     7    21 2   
    20     7    22 1   
    21     8    10 1   
    22     8    23 ar  
    23     8    24 ar  
    24     9    24 ar  
    25     9    25 ar  
    26     9    44 1   
    27    10    13 ar  
    28    10    27 ar  
    29    11    12 ar  
    30    11    28 ar  
    31    11    29 1   
    32    12    13 ar  
    33    12    45 1   
    34    13    46 1   
    35    14    31 1   
    36    14    32 1   
    37    14    47 1   
    38    14    48 1   
    39    15    32 ar  
    40    15    33 ar  
    41    15    67 1   
    42    16    33 ar  
    43    16    34 ar  
    44    16    49 1   
    45    17    18 1   
    46    17    50 1   
    47    17    51 1   
    48    17    52 1   
    49    18    19 1   
    50    18    53 1   
    51    19    54 1   
    52    19    55 1   
    53    19    56 1   
    54    20    57 1   
    55    20    58 1   
    56    22    23 ar  
    57    22    25 ar  
    58    23    59 1   
    59    24    60 1   
    60    25    26 1   
    61    27    28 ar  
    62    27    61 1   
    63    28    62 1   
    64    29    30 2   
    65    29    31 1   
    66    31    63 1   
    67    32    35 ar  
    68    33    64 1   
    69    34    35 ar  
    70    34    65 1   
    71    35    66 1   
@<TRIPOS>SUBSTRUCTURE
     1 GH8         1 TEMP              0 ****  ****    0 ROOT
