@<TRIPOS>MOLECULE
molecule
   38    38     1     0     0
SMALL
bcc


@<TRIPOS>ATOM
      1 C1           0.0000     0.0000     0.0000 c3         1 GHA       0.115100
      2 O1          -0.4970     1.1720    -0.6490 oh         1 GHA      -0.658800
      3 C2           1.5420     0.0000     0.0000 c3         1 GHA       0.092100
      4 O2           2.0420    -1.1710    -0.6480 oh         1 GHA      -0.643800
      5 C3           1.9430     0.0000     1.4910 c3         1 GHA       0.094800
      6 N4           0.7720    -0.5820     2.1940 n3         1 GHA      -0.620600
      7 C5          -0.4010    -0.0010     1.4910 c3         1 GHA       0.123500
      8 C6          -1.6420    -0.8690     1.7090 c3         1 GHA       0.151400
      9 O6          -1.4140    -2.1710     1.1650 oh         1 GHA      -0.595800
     10 C7           0.7720    -0.0200     3.5510 c3         1 GHA       0.088800
     11 C8           1.9920    -0.5350     4.3170 c3         1 GHA       0.134100
     12 O8           3.1820    -0.0110     3.7230 oh         1 GHA      -0.662800
     13 C9           1.9070    -0.0820     5.7760 c3         1 GHA       0.157100
     14 C10          3.1270    -0.5970     6.5410 c3         1 GHA       0.116400
     15 O10          3.2220    -2.0150     6.3880 oh         1 GHA      -0.608800
     16 O9           0.7170    -0.6070     6.3680 os         1 GHA      -0.530500
     17 S9           0.1670     0.5390     7.4360 s6         1 GHA       0.171300
     18 O11         -0.3650     1.6750     8.5240 o          1 GHA      -0.668867
     19 O12          0.4370     2.0470     6.8140 o          1 GHA      -0.668867
     20 O13         -1.4540     0.3280     7.6840 o          1 GHA      -0.668867
     21 H1          -0.3730    -0.8930    -0.4870 h1         1 GHA       0.028700
     22 HO1         -0.8260     0.9430    -1.5020 ho         1 GHA       0.312000
     23 H2           1.9150     0.8930    -0.4870 h1         1 GHA      -0.007300
     24 HO2          2.8040    -0.9480    -1.1560 ho         1 GHA       0.305000
     25 H31          2.5140     0.8910     1.7240 h1         1 GHA       0.048700
     26 H32          2.5140    -0.8900     1.7240 h1         1 GHA       0.048700
     27 H5          -0.5780     1.0120     1.8320 h1         1 GHA       0.057700
     28 H61         -1.8950    -0.8810     2.7620 h1         1 GHA       0.013700
     29 H62         -2.4720    -0.4620     1.1440 h1         1 GHA       0.013700
     30 HO6         -2.2070    -2.6770     1.2170 ho         1 GHA       0.355000
     31 H71         -0.2440     0.2230     3.8410 h1         1 GHA       0.076700
     32 H72          1.3770     0.8780     3.5700 h1         1 GHA       0.076700
     33 H8           2.0140    -1.6170     4.2750 h1         1 GHA       0.018700
     34 HO8          3.7100    -0.7210     3.3980 ho         1 GHA       0.346000
     35 H9           1.8840     1.0000     5.8170 h1         1 GHA       0.093700
     36 H101         3.3170     0.0450     7.3930 h1         1 GHA      -0.011800
     37 H102         3.9910    -0.5940     5.8870 h1         1 GHA      -0.011800
     38 H10          3.9370    -2.3400     6.9090 ho         1 GHA       0.320000
@<TRIPOS>BOND
     1     1     2 1
     2     1     3 1
     3     1     7 1
     4     1    21 1
     5     2    22 1
     6     3     4 1
     7     3     5 1
     8     3    23 1
     9     4    24 1
    10     5     6 1
    11     5    25 1
    12     5    26 1
    13     6     7 1
    14     6    10 1
    15     7     8 1
    16     7    27 1
    17     8     9 1
    18     8    28 1
    19     8    29 1
    20     9    30 1
    21    10    11 1
    22    10    31 1
    23    10    32 1
    24    11    12 1
    25    11    13 1
    26    11    33 1
    27    12    34 1
    28    13    14 1
    29    13    16 1
    30    13    35 1
    31    14    15 1
    32    14    36 1
    33    14    37 1
    34    15    38 1
    35    16    17 1
    36    17    18 1
    37    17    19 1
    38    17    20 1
@<TRIPOS>SUBSTRUCTURE
     1 GHA         1 TEMP              0 ****  ****    0 ROOT
