@<TRIPOS>MOLECULE
molecule
   43    44     1     0     0
SMALL
bcc


@<TRIPOS>ATOM
      1 C4           0.0000     0.0000     0.0000 c3         1 GHB      -0.090700
      2 C14         10.6650    -0.0030     4.1000 c3         1 GHB       0.113000
      3 C5           1.5070     0.0000     0.0000 cc         1 GHB       0.268600
      4 C6           2.2910     0.0000     1.0990 cd         1 GHB      -0.219600
      5 C11          5.7620    -0.0020     3.6200 ca         1 GHB      -0.067500
      6 C7           4.7370    -0.0020     1.4530 ca         1 GHB       0.050800
      7 C8           5.9900    -0.0010     0.8510 ca         1 GHB      -0.146500
      8 C9           7.1280    -0.0030     1.6260 ca         1 GHB      -0.067500
      9 C10          7.0220    -0.0020     3.0190 ca         1 GHB      -0.155600
     10 C12          4.6270    -0.0010     2.8390 ca         1 GHB      -0.146500
     11 C13          8.2400    -0.0020     3.8540 c          1 GHB       0.677700
     12 N1           3.5820    -0.0010     0.6610 na         1 GHB       0.130300
     13 N2           3.5230    -0.0010    -0.7410 nd         1 GHB      -0.175800
     14 C3          -2.0340     1.1070    -0.9370 c3         1 GHB      -0.088100
     15 N3           2.2820    -0.0070    -1.0850 nc         1 GHB      -0.330000
     16 C1          -0.1050     2.4910    -0.1620 c3         1 GHB      -0.088100
     17 C2          -0.5090     1.1780    -0.8340 c3         1 GHB      -0.074700
     18 O1           8.1470    -0.0010     5.0660 o          1 GHB      -0.598100
     19 N4           9.4560    -0.0030     3.2720 ns         1 GHB      -0.586900
     20 C15         11.9010    -0.0040     3.1980 c3         1 GHB      -0.156400
     21 C16         13.1630    -0.0030     4.0630 c3         1 GHB       0.621900
     22 F1          13.1750     1.1390     4.8710 f          1 GHB      -0.223300
     23 F2          13.1740    -1.1450     4.8720 f          1 GHB      -0.223300
     24 F3          14.2930    -0.0050     3.2390 f          1 GHB      -0.223300
     25 H1          -0.3610    -0.9280    -0.4270 hc         1 GHB       0.054200
     26 H2          -0.3610     0.0950     1.0170 hc         1 GHB       0.054200
     27 H3          10.6740     0.8820     4.7250 h1         1 GHB       0.071200
     28 H4          10.6740    -0.8870     4.7260 h1         1 GHB       0.071200
     29 H5           1.9630    -0.1830     2.1150 h4         1 GHB       0.185000
     30 H6           5.6760    -0.0010     4.7000 ha         1 GHB       0.150000
     31 H7           6.0710    -0.0020    -0.2300 ha         1 GHB       0.154500
     32 H8           8.1040    -0.0030     1.1560 ha         1 GHB       0.150000
     33 H9           3.6490    -0.0010     3.3050 ha         1 GHB       0.154500
     34 H10         -2.3240     0.1420    -1.3360 hc         1 GHB       0.034367
     35 H11         -2.3880     1.8910    -1.5940 hc         1 GHB       0.034367
     36 H12         -2.4690     1.2360     0.0470 hc         1 GHB       0.034367
     37 H13          0.9580     2.6530    -0.2960 hc         1 GHB       0.034367
     38 H14         -0.3310     2.4400     0.8960 hc         1 GHB       0.034367
     39 H15         -0.6540     3.3100    -0.6090 hc         1 GHB       0.034367
     40 H16         -0.0770     1.1310    -1.8260 hc         1 GHB       0.069700
     41 H17          9.5340    -0.0050     2.2750 hn         1 GHB       0.315500
     42 H18         11.8920    -0.8880     2.5730 hc         1 GHB       0.081700
     43 H19         11.8920     0.8810     2.5720 hc         1 GHB       0.081700
@<TRIPOS>BOND
     1    24    21 1
     2    22    21 1
     3    18    11 2
     4    21    23 1
     5    21    20 1
     6     5    10 ar
     7     5     9 ar
     8    20     2 1
     9    11     9 1
    10    11    19 1
    11    10     6 ar
    12     2    19 1
    13     9     8 ar
    14    16    17 1
    15     4    12 1
    16     4     3 2
    17     6    12 1
    18     6     7 ar
    19     8     7 ar
    20    12    13 1
    21     1     3 1
    22     1    17 1
    23     3    15 1
    24    17    14 1
    25    13    15 2
    26     1    25 1
    27     1    26 1
    28     2    27 1
    29     2    28 1
    30     4    29 1
    31     5    30 1
    32     7    31 1
    33     8    32 1
    34    10    33 1
    35    14    34 1
    36    14    35 1
    37    14    36 1
    38    16    37 1
    39    16    38 1
    40    16    39 1
    41    17    40 1
    42    19    41 1
    43    20    42 1
    44    20    43 1
@<TRIPOS>SUBSTRUCTURE
     1 GHB         1 TEMP              0 ****  ****    0 ROOT
