@<TRIPOS>MOLECULE
GHE
   46    47     1     0     0
SMALL
bcc


@<TRIPOS>ATOM
      1 N1           0.0000     0.0000     0.0000 n          1 GHE      -0.131300
      2 C2           1.4700     0.0000     0.0000 c3         1 GHE      -0.076300
      3 C3           1.9280     0.0000     1.4740 c3         1 GHE      -0.006400
      4 C4           0.6940    -0.5710     2.2210 c3         1 GHE      -0.052400
      5 C5          -0.4730     0.0310     1.3950 c3         1 GHE       0.046000
      6 C1           1.9830     1.2350    -0.6950 c          1 GHE       0.976600
      7 O2           1.2040     2.0330    -1.1610 o          1 GHE      -0.889050
      8 O1           3.3040     1.4470    -0.7980 o          1 GHE      -0.889050
      9 C6          -0.7840    -0.0200    -1.0960 c          1 GHE       0.604600
     10 O6          -0.2850    -0.0390    -2.2000 o          1 GHE      -0.634600
     11 C7          -2.2850    -0.0170    -0.9480 c3         1 GHE      -0.101400
     12 C8          -2.9340    -0.0410    -2.3340 c3         1 GHE      -0.021400
     13 C9          -4.4560    -0.0390    -2.1830 c3         1 GHE      -0.021400
     14 C10         -5.1050    -0.0640    -3.5690 c3         1 GHE      -0.101400
     15 C11         -6.6040    -0.0610    -3.4210 c          1 GHE       0.604600
     16 O11         -7.1050    -0.0420    -2.3170 o          1 GHE      -0.634600
     17 N2          -7.3900    -0.0810    -4.5170 n          1 GHE      -0.131300
     18 C15         -8.8600    -0.0750    -4.5180 c3         1 GHE      -0.076300
     19 C14         -9.3170    -0.1300    -5.9910 c3         1 GHE      -0.006400
     20 C13         -8.0860    -0.7340    -6.7150 c3         1 GHE      -0.052400
     21 C12         -6.9170    -0.1050    -5.9130 c3         1 GHE       0.046000
     22 C16         -9.3680     1.1870    -3.8700 c          1 GHE       0.976600
     23 O16         -8.5870     2.0060    -3.4470 o          1 GHE      -0.889050
     24 O17        -10.6890     1.4020    -3.7630 o          1 GHE      -0.889050
     25 H2           1.8370    -0.8890    -0.4980 h1         1 GHE       0.026700
     26 H31C         2.1420     1.0080     1.8070 hc         1 GHE       0.020200
     27 H32C         2.7870    -0.6460     1.6070 hc         1 GHE       0.020200
     28 H41C         0.6640    -0.2190     3.2450 hc         1 GHE       0.002950
     29 H42C         0.6810    -1.6540     2.1740 hc         1 GHE       0.002950
     30 H51C        -1.3640    -0.5760     1.5040 h1         1 GHE       0.006200
     31 H52C        -0.6650     1.0520     1.7040 h1         1 GHE       0.006200
     32 H71C        -2.5940     0.8770    -0.4200 hc         1 GHE       0.019950
     33 H72C        -2.5940    -0.8920    -0.3890 hc         1 GHE       0.019950
     34 H81C        -2.6250     0.8340    -2.8920 hc         1 GHE       0.024700
     35 H82C        -2.6240    -0.9350    -2.8620 hc         1 GHE       0.024700
     36 H91C        -4.7660     0.8540    -1.6550 hc         1 GHE       0.024700
     37 H92C        -4.7650    -0.9150    -1.6250 hc         1 GHE       0.024700
     38 H101        -4.7960     0.8110    -4.1280 hc         1 GHE       0.019950
     39 H102        -4.7960    -0.9580    -4.0970 hc         1 GHE       0.019950
     40 H15         -9.2310    -0.9430    -3.9860 h1         1 GHE       0.026700
     41 H141        -9.5280     0.8660    -6.3620 hc         1 GHE       0.020200
     42 H142       -10.1790    -0.7770    -6.0990 hc         1 GHE       0.020200
     43 H131        -8.0780    -1.8140    -6.6260 hc         1 GHE       0.002950
     44 H132        -8.0550    -0.4210    -7.7510 hc         1 GHE       0.002950
     45 H121        -6.0290    -0.7200    -5.9980 h1         1 GHE       0.006200
     46 H122        -6.7210     0.9020    -6.2610 h1         1 GHE       0.006200
@<TRIPOS>BOND
     1     1     2 1   
     2     1     5 1   
     3     1     9 1   
     4     2     3 1   
     5     2     6 1   
     6     2    25 1   
     7     3     4 1   
     8     3    26 1   
     9     3    27 1   
    10     4     5 1   
    11     4    28 1   
    12     4    29 1   
    13     5    30 1   
    14     5    31 1   
    15     6     7 1   
    16     6     8 1   
    17     9    10 2   
    18     9    11 1   
    19    11    12 1   
    20    11    32 1   
    21    11    33 1   
    22    12    13 1   
    23    12    34 1   
    24    12    35 1   
    25    13    14 1   
    26    13    36 1   
    27    13    37 1   
    28    14    15 1   
    29    14    38 1   
    30    14    39 1   
    31    15    16 2   
    32    15    17 1   
    33    17    18 1   
    34    17    21 1   
    35    18    19 1   
    36    18    22 1   
    37    18    40 1   
    38    19    20 1   
    39    19    41 1   
    40    19    42 1   
    41    20    21 1   
    42    20    43 1   
    43    20    44 1   
    44    21    45 1   
    45    21    46 1   
    46    22    23 1   
    47    22    24 1   
@<TRIPOS>SUBSTRUCTURE
     1 GHE         1 TEMP              0 ****  ****    0 ROOT
