@<TRIPOS>MOLECULE
GHK
   38    39     1     0     0
SMALL
bcc


@<TRIPOS>ATOM
      1 C4           0.0000     0.0000     0.0000 ca         1 GHK       0.193000
      2 C14         -3.0090     2.0420    -8.5610 ca         1 GHK      -0.088000
      3 C5           1.3960     0.0000     0.0000 ca         1 GHK      -0.107000
      4 C6           2.0830     0.0000     1.1970 ca         1 GHK       0.017000
      5 C11         -1.0590     0.3220    -7.7690 ca         1 GHK      -0.128500
      6 C7          -0.7200    -0.0010    -1.2380 cg         1 GHK      -0.216000
      7 C8          -1.3270    -0.0070    -2.2430 c1         1 GHK       0.014900
      8 C9          -1.4410     0.0170    -3.5680 c3         1 GHK       0.319900
      9 C10         -2.4260     0.2340    -7.2770 ca         1 GHK       0.177500
     10 C12         -0.7800     1.5300    -8.8330 ca         1 GHK      -0.088000
     11 C13         -1.8070     2.1520    -9.0200 ca         1 GHK      -0.120000
     12 N1           2.5220     1.5850     4.3410 nz         1 GHK      -0.140500
     13 N2          -1.4920    -1.1150    -4.5410 n7         1 GHK      -0.582100
     14 C3          -0.6920    -0.0040     1.2120 ca         1 GHK      -0.107000
     15 O1           3.5580    -0.5420     3.6380 o          1 GHK      -0.494800
     16 O2           1.3970    -0.5410     4.8940 o          1 GHK      -0.494800
     17 C1           1.3910     0.0020     2.3940 ca         1 GHK      -0.238500
     18 C2           0.0080    -0.0030     2.4020 ca         1 GHK       0.017000
     19 S2          -2.2440    -1.3600    -6.0420 sy         1 GHK       1.000200
     20 O3          -3.5920    -1.1890    -5.7880 o          1 GHK      -0.574300
     21 O4          -1.7250    -2.4760    -6.5940 o          1 GHK      -0.574300
     22 C15         -3.0830     0.8170    -7.5450 ca         1 GHK      -0.128500
     23 H2           1.9380    -0.0360    -0.9370 ha         1 GHK       0.137500
     24 H3           3.1660    -0.0000     1.1990 ha         1 GHK       0.125500
     25 H5          -0.6180     0.6350    -3.9060 h1         1 GHK       0.024200
     26 H6          -2.3430     0.5860    -3.7580 h1         1 GHK       0.024200
     27 H7           0.0930     1.4960    -9.4740 ha         1 GHK       0.130000
     28 H8          -1.6030     3.1360    -9.4240 ha         1 GHK       0.079000
     29 H9           3.1050     1.6080     5.1540 hn         1 GHK       0.314467
     30 H10          2.8490     2.2590     3.6780 hn         1 GHK       0.314467
     31 H11         -0.9630    -1.9090    -4.2390 hn         1 GHK       0.314800
     32 H12         -1.7750    -0.0080     1.2170 ha         1 GHK       0.137500
     33 H13         -0.5270    -0.0060     3.3440 ha         1 GHK       0.125500
     34 H14         -4.1000     0.9560    -7.1980 ha         1 GHK       0.117500
     35 S1           2.2760     0.0030     3.9180 sy         1 GHK       0.936200
     36 H1          -3.9010     2.5080    -8.9600 ha         1 GHK       0.130000
     37 H131         1.5750     1.7740     4.6030 hn         1 GHK       0.314467
     38 H4          -0.0890    -0.1590    -7.7520 ha         1 GHK       0.117500
@<TRIPOS>BOND
     1     1     3 ar  
     2     1     6 1   
     3     1    14 ar  
     4     2    11 ar  
     5     2    22 ar  
     6     2    36 1   
     7     3     4 ar  
     8     3    23 1   
     9     4    17 ar  
    10     4    24 1   
    11     5     9 ar  
    12     5    10 ar  
    13     5    38 1   
    14     6     7 3   
    15     7     8 1   
    16     8    13 1   
    17     8    25 1   
    18     8    26 1   
    19     9    19 1   
    20     9    22 ar  
    21    10    11 ar  
    22    10    27 1   
    23    11    28 1   
    24    12    29 1   
    25    12    30 1   
    26    12    35 1   
    27    12    37 1   
    28    13    19 1   
    29    13    31 1   
    30    14    18 ar  
    31    14    32 1   
    32    15    35 2   
    33    16    35 2   
    34    17    18 ar  
    35    17    35 1   
    36    18    33 1   
    37    19    20 2   
    38    19    21 2   
    39    22    34 1   
@<TRIPOS>SUBSTRUCTURE
     1 GHK         1 TEMP              0 ****  ****    0 ROOT
