@<TRIPOS>MOLECULE
molecule
   44    45     1     0     0
SMALL
bcc


@<TRIPOS>ATOM
      1 C4           0.0000     0.0000     0.0000 c3         1 GHN      -0.144700
      2 C14          8.4690    -2.4290     4.8440 c3         1 GHN       0.232800
      3 C5           1.5060     0.0000     0.0000 cc         1 GHN       0.455700
      4 C6           3.5540     0.0000     0.8830 cd         1 GHN       0.416800
      5 C11          6.3190     0.0120     4.1130 ca         1 GHN      -0.316500
      6 C7           3.9370    -0.0010    -0.4090 cc         1 GHN      -0.167400
      7 C8           4.5190     0.0050     2.0110 ca         1 GHN      -0.058500
      8 C9           5.8890     0.0070     1.7580 ca         1 GHN      -0.130500
      9 C10          6.7830     0.0100     2.8100 ca         1 GHN      -0.032000
     10 C12          4.9590     0.0090     4.3700 ca         1 GHN      -0.032000
     11 C13          4.0580     0.0060     3.3260 ca         1 GHN      -0.130500
     12 N1           2.2410     0.0000     1.0590 nd         1 GHN      -0.665000
     13 N2           7.7860    -1.5750     5.8190 n7         1 GHN      -0.916100
     14 C3          -0.5030     1.4200    -0.0070 c          1 GHN       0.631100
     15 C1          -3.7620     3.1380    -0.0150 c3         1 GHN      -0.096100
     16 O1          -1.8220     1.6660    -0.0080 os         1 GHN      -0.431900
     17 O2           0.2830     2.3390    -0.0100 o          1 GHN      -0.534000
     18 S1           2.4810    -0.0060    -1.4030 ss         1 GHN      -0.166300
     19 O3           8.6740     0.5560     4.9460 o          1 GHN      -0.631800
     20 O4           6.7750     0.5480     6.5720 o          1 GHN      -0.631800
     21 C15          8.9730    -3.6940     5.5390 c3         1 GHN      -0.143400
     22 C16          9.6860    -4.5860     4.5200 c3         1 GHN       0.617900
     23 F1          10.7690    -3.8920     3.9710 f          1 GHN      -0.224633
     24 F2          10.1470    -5.7440     5.1550 f          1 GHN      -0.224633
     25 F3           8.7940    -4.9370     3.5020 f          1 GHN      -0.224633
     26 H1          -0.3610    -0.5070     0.8870 hc         1 GHN       0.093200
     27 H2          -0.3610    -0.5150    -0.8820 hc         1 GHN       0.093200
     28 H3           9.3080    -1.8910     4.4180 h1         1 GHN       0.062700
     29 H4           7.7770    -2.7010     4.0550 h1         1 GHN       0.062700
     30 H5           4.9570    -0.0030    -0.7730 h4         1 GHN       0.185000
     31 H6           6.2530     0.0060     0.7380 ha         1 GHN       0.148500
     32 H7           7.8480     0.0120     2.6150 ha         1 GHN       0.152000
     33 H8           4.6020     0.0100     5.3930 ha         1 GHN       0.152000
     34 H9           2.9940     0.0040     3.5280 ha         1 GHN       0.148500
     35 H10          7.5240    -1.9450     6.7110 hn         1 GHN       0.455800
     36 H11         -4.0690     4.1770    -0.0210 hc         1 GHN       0.048700
     37 H12         -4.1400     2.6450    -0.9030 hc         1 GHN       0.048700
     38 H13         -4.1590     2.6490     0.8660 hc         1 GHN       0.048700
     39 H14         -1.8460     3.5450    -0.9020 h1         1 GHN       0.051200
     40 H15         -1.8460     3.5530     0.8680 h1         1 GHN       0.051200
     41 H16          8.1340    -4.2310     5.9640 hc         1 GHN       0.086200
     42 H17          9.6640    -3.4220     6.3270 hc         1 GHN       0.086200
     43 S2           7.4660     0.0090     5.4520 sy         1 GHN       1.424200
     44 C2          -2.2340     3.0580    -0.0150 c3         1 GHN       0.147400
@<TRIPOS>BOND
     1    24    22 1
     2    20    43 2
     3    25    22 1
     4    22    23 1
     5    22    21 1
     6     9     8 ar
     7     9     5 ar
     8    43    19 2
     9    43    13 1
    10    43     5 1
    11    21     2 1
    12     8     7 ar
    13    13     2 1
    14     5    10 ar
    15    17    14 2
    16    12     3 2
    17    12     4 1
    18     1    14 1
    19     1     3 1
    20     7     4 1
    21     7    11 ar
    22    10    11 ar
    23    14    16 1
    24     3    18 1
    25     4     6 2
    26    16    44 1
    27    44    15 1
    28     6    18 1
    29     1    26 1
    30     1    27 1
    31     2    28 1
    32     2    29 1
    33     6    30 1
    34     8    31 1
    35     9    32 1
    36    10    33 1
    37    11    34 1
    38    13    35 1
    39    15    36 1
    40    15    37 1
    41    15    38 1
    42    44    39 1
    43    44    40 1
    44    21    41 1
    45    21    42 1
@<TRIPOS>SUBSTRUCTURE
     1 GHN         1 TEMP              0 ****  ****    0 ROOT
