@<TRIPOS>MOLECULE
molecule
   25    25     1     0     0
SMALL
bcc


@<TRIPOS>ATOM
      1 C4           0.0000     0.0000     0.0000 c          1 GHQ       0.677700
      2 C5           1.4780     0.0000     0.0000 ca         1 GHQ      -0.148600
      3 C6           2.1780     0.0000     1.2080 ca         1 GHQ      -0.085500
      4 C7           3.5580     0.0000     1.2010 ca         1 GHQ      -0.137500
      5 C8           4.2470     0.0000     0.0020 ca         1 GHQ      -0.104000
      6 C9           3.5600     0.0010    -1.1980 ca         1 GHQ      -0.137500
      7 C10          2.1800    -0.0050    -1.2060 ca         1 GHQ      -0.085500
      8 N1          -0.6740     0.0010    -1.1680 ns         1 GHQ      -0.588900
      9 C3          -2.1390     0.0010    -1.1690 c3         1 GHQ       0.113000
     10 F1          -4.6440     1.1440    -1.9530 f          1 GHQ      -0.223967
     11 C1          -4.1780     0.0010    -2.6130 c3         1 GHQ       0.621900
     12 F2          -4.6440    -1.1410    -1.9540 f          1 GHQ      -0.223967
     13 F3          -4.6430     0.0020    -3.9320 f          1 GHQ      -0.223967
     14 C2          -2.6470     0.0010    -2.6120 c3         1 GHQ      -0.155400
     15 O1          -0.6080    -0.0060     1.0520 o          1 GHQ      -0.600100
     16 H1           1.6400     0.0000     2.1480 ha         1 GHQ       0.140500
     17 H2           4.1030    -0.0000     2.1370 ha         1 GHQ       0.135500
     18 H3           5.3300     0.0020     0.0020 ha         1 GHQ       0.133000
     19 H4           4.1060    -0.0010    -2.1340 ha         1 GHQ       0.135500
     20 H5           1.6430    -0.0040    -2.1470 ha         1 GHQ       0.140500
     21 H6          -0.1730     0.0020    -2.0340 hn         1 GHQ       0.315500
     22 H7          -2.5000     0.8850    -0.6590 h1         1 GHQ       0.070200
     23 H8          -2.5000    -0.8840    -0.6590 h1         1 GHQ       0.070200
     24 H9          -2.2860     0.8860    -3.1220 hc         1 GHQ       0.081700
     25 H10         -2.2860    -0.8830    -3.1220 hc         1 GHQ       0.081700
@<TRIPOS>BOND
     1    10    11 1
     2    15     1 2
     3    11    12 1
     4    11    13 1
     5    11    14 1
     6     9    14 1
     7     9     8 1
     8     1     8 1
     9     1     2 1
    10     7     2 ar
    11     7     6 ar
    12     2     3 ar
    13     6     5 ar
    14     3     4 ar
    15     5     4 ar
    16     3    16 1
    17     4    17 1
    18     5    18 1
    19     6    19 1
    20     7    20 1
    21     8    21 1
    22     9    22 1
    23     9    23 1
    24    14    24 1
    25    14    25 1
@<TRIPOS>SUBSTRUCTURE
     1 GHQ         1 TEMP              0 ****  ****    0 ROOT
