@<TRIPOS>MOLECULE
molecule
   39    40     1     0     0
SMALL
bcc


@<TRIPOS>ATOM
      1 C1           0.0000     0.0000     0.0000 c2         1 GHR       0.549200
      2 N5           1.3860     0.0000     0.0000 nu         1 GHR      -0.942200
      3 C5           2.0670     0.0000     1.3040 c3         1 GHR       0.249500
      4 C6           3.5610    -0.2650     1.1030 c3         1 GHR       0.130400
      5 O6           4.1420     0.8190     0.3740 oh         1 GHR      -0.609800
      6 C4           1.4610    -1.1030     2.1770 c3         1 GHR       0.120100
      7 O4           2.0620    -1.0700     3.4730 oh         1 GHR      -0.600800
      8 C3          -0.0480    -0.8790     2.3080 c3         1 GHR       0.124100
      9 O3          -0.6050    -1.8770     3.1680 oh         1 GHR      -0.605800
     10 C2          -0.6980    -0.9720     0.9280 c3         1 GHR       0.129800
     11 O2          -2.0840    -0.6380     1.0250 oh         1 GHR      -0.572800
     12 N1          -0.6720     0.8020    -0.7600 n2         1 GHR      -0.449200
     13 C12         -2.5920     5.9940    -5.2110 ca         1 GHR       0.012400
     14 C11         -2.9780     5.5940    -3.9440 ca         1 GHR      -0.103000
     15 C10         -2.2060     4.6900    -3.2390 ca         1 GHR      -0.135500
     16 C13         -1.4370     5.4850    -5.7790 ca         1 GHR      -0.103000
     17 C14         -0.6620     4.5820    -5.0790 ca         1 GHR      -0.135500
     18 C9          -1.0430     4.1840    -3.8050 ca         1 GHR       0.074600
     19 N9          -0.2600     3.2680    -3.0930 ns         1 GHR      -0.464100
     20 C8          -0.8440     2.3860    -2.2580 c          1 GHR       0.749100
     21 O8          -2.0560     2.3190    -2.1960 o          1 GHR      -0.539000
     22 O7          -0.0860     1.5780    -1.4940 os         1 GHR      -0.146600
     23 H5           1.9260     0.9600     1.7850 h1         1 GHR       0.074700
     24 H6           4.0460    -0.3520     2.0680 h1         1 GHR       0.036700
     25 H6A          3.6930    -1.1860     0.5480 h1         1 GHR       0.036700
     26 HO6          5.0720     0.8380     0.5270 ho         1 GHR       0.407000
     27 H4           1.6420    -2.0660     1.7150 h1         1 GHR       0.048700
     28 HO4          2.2770    -1.9470     3.7430 ho         1 GHR       0.414000
     29 H3          -0.2290     0.1040     2.7250 h1         1 GHR       0.069700
     30 HO3         -1.0410    -1.4600     3.8920 ho         1 GHR       0.418000
     31 H2          -0.5880    -1.9790     0.5440 h1         1 GHR       0.061700
     32 HO2         -2.6020    -1.3360     0.6590 ho         1 GHR       0.413000
     33 H10         -2.5060     4.3790    -2.2460 ha         1 GHR       0.155000
     34 H13         -1.1410     5.7970    -6.7730 ha         1 GHR       0.148000
     35 H14          0.2430     4.1860    -5.5230 ha         1 GHR       0.155000
     36 HN9          0.7360     3.2760    -3.1950 hn         1 GHR       0.333500
     37 H16          1.9050    -0.0000    -0.8560 hn         1 GHR       0.459800
     38 H11         -3.8850     5.9900    -3.5040 ha         1 GHR       0.148000
     39 Cl12        -3.5630     7.1310    -6.0940 cl         1 GHR      -0.110400
@<TRIPOS>BOND
     1     1    12 2
     2     2     1 1
     3     3     2 1
     4     3    23 1
     5     4     3 1
     6     4     5 1
     7     4    24 1
     8     4    25 1
     9     5    26 1
    10     6     3 1
    11     6     8 1
    12     6    27 1
    13     7     6 1
    14     7    28 1
    15     8    10 1
    16     8    29 1
    17     9     8 1
    18     9    30 1
    19    10     1 1
    20    10    11 1
    21    10    31 1
    22    11    32 1
    23    12    22 1
    24    13    39 1
    25    14    13 ar
    26    14    38 1
    27    15    14 ar
    28    15    33 1
    29    16    13 ar
    30    16    34 1
    31    17    16 ar
    32    17    35 1
    33    18    15 ar
    34    18    17 ar
    35    19    18 1
    36    19    36 1
    37    20    19 1
    38    20    22 1
    39    21    20 2
    40     2    37 1
@<TRIPOS>SUBSTRUCTURE
     1 GHR         1 TEMP              0 ****  ****    0 ROOT
