@<TRIPOS>MOLECULE
molecule
   27    26     1     0     0
SMALL
bcc


@<TRIPOS>ATOM
      1 C10          0.0000     0.0000     0.0000 c          1 GHS       0.891600
      2 O11          1.3420     0.0000     0.0000 o          1 GHS      -0.845800
      3 C9          -0.7530     0.0000     1.3060 c3         1 GHS      -0.184400
      4 C8          -2.2570    -0.0070     1.0260 c3         1 GHS      -0.061400
      5 C7          -3.0220    -0.0080     2.3520 c3         1 GHS      -0.082400
      6 C6          -4.5260    -0.0150     2.0740 c3         1 GHS      -0.103400
      7 C5          -5.2910    -0.0160     3.3980 c3         1 GHS       0.233800
      8 N4          -6.7320    -0.0220     3.1310 nu         1 GHS      -0.841200
      9 C3          -7.6240    -0.0240     4.1770 c2         1 GHS       0.682100
     10 N2          -7.1900    -0.0200     5.4050 n2         1 GHS      -0.790100
     11 N1          -8.9760    -0.0300     3.9250 nz         1 GHS      -0.809600
     12 O12         -0.6040    -0.0040    -1.0450 o          1 GHS      -0.845800
     13 H2          -0.4950     0.8870     1.8720 hc         1 GHS       0.031200
     14 H3          -0.4870    -0.8820     1.8760 hc         1 GHS       0.031200
     15 H4          -2.5150    -0.8940     0.4600 hc         1 GHS       0.049200
     16 H5          -2.5230     0.8750     0.4570 hc         1 GHS       0.049200
     17 H6          -2.7640     0.8790     2.9190 hc         1 GHS       0.040700
     18 H7          -2.7560    -0.8900     2.9220 hc         1 GHS       0.040700
     19 H8          -4.7840    -0.9020     1.5070 hc         1 GHS       0.050200
     20 H9          -4.7920     0.8670     1.5040 hc         1 GHS       0.050200
     21 H10         -5.0320     0.8700     3.9650 h1         1 GHS       0.072700
     22 H11         -5.0250    -0.8990     3.9670 h1         1 GHS       0.072700
     23 H12         -7.0660     0.0290     2.1890 hn         1 GHS       0.453800
     24 H13         -7.8400    -0.0220     6.1660 hn         1 GHS       0.428400
     25 H14         -9.1630    -0.5940     3.1200 hn         1 GHS       0.461800
     26 H15         -9.4610    -0.4060     4.7160 hn         1 GHS       0.461800
     27 H131        -9.2890     0.9060     3.7560 hn         1 GHS       0.461800
@<TRIPOS>BOND
     1    10     9 2
     2    11     9 1
     3     9     8 1
     4     8     7 1
     5     7     6 1
     6     6     5 1
     7     5     4 1
     8     4     3 1
     9    12     1 1
    10     1     3 1
    11     1     2 1
    12     3    13 1
    13     3    14 1
    14     4    15 1
    15     4    16 1
    16     5    17 1
    17     5    18 1
    18     6    19 1
    19     6    20 1
    20     7    21 1
    21     7    22 1
    22     8    23 1
    23    10    24 1
    24    11    25 1
    25    11    26 1
    26    27    11 1
@<TRIPOS>SUBSTRUCTURE
     1 GHS         1 TEMP              0 ****  ****    0 ROOT
