@<TRIPOS>MOLECULE
GHS
   27    26     1     0     0
SMALL
bcc


@<TRIPOS>ATOM
      1 C10          0.0000     0.0000     0.0000 c          1 GHS       0.978600
      2 O11          1.3420     0.0000     0.0000 o          1 GHS      -0.893800
      3 C9          -0.7530     0.0000     1.3060 c3         1 GHS      -0.135400
      4 C8          -2.2570    -0.0070     1.0260 c3         1 GHS      -0.012400
      5 C7          -3.0220    -0.0080     2.3520 c3         1 GHS      -0.029400
      6 C6          -4.5260    -0.0150     2.0740 c3         1 GHS      -0.034400
      7 C5          -5.2910    -0.0160     3.3980 c3         1 GHS       0.152800
      8 N4          -6.7320    -0.0220     3.1310 nu         1 GHS      -0.472200
      9 C3          -7.6240    -0.0240     4.1770 c2         1 GHS       0.241100
     10 N2          -7.1900    -0.0200     5.4050 n2         1 GHS      -0.652100
     11 N1          -8.9760    -0.0300     3.9250 nz         1 GHS       0.196400
     12 O12         -0.6040    -0.0040    -1.0450 o          1 GHS      -0.893800
     13 H2          -0.4870    -0.8820     1.8760 hc         1 GHS       0.006700
     14 H3          -0.4950     0.8870     1.8720 hc         1 GHS       0.006700
     15 H4          -2.5150    -0.8940     0.4600 hc         1 GHS       0.023700
     16 H5          -2.5230     0.8750     0.4570 hc         1 GHS       0.023700
     17 H6          -2.7560    -0.8900     2.9220 hc         1 GHS       0.012700
     18 H7          -2.7640     0.8790     2.9190 hc         1 GHS       0.012700
     19 H8          -4.7920     0.8670     1.5040 hc         1 GHS       0.025700
     20 H9          -4.7850    -0.9020     1.5070 hc         1 GHS       0.025700
     21 H10         -5.0320     0.8700     3.9650 h1         1 GHS       0.032700
     22 H11         -5.0250    -0.8990     3.9670 h1         1 GHS       0.032700
     23 H12         -7.0660    -0.0240     2.1880 hn         1 GHS       0.306800
     24 H13         -6.2060    -0.0160     5.5900 hn         1 GHS       0.391400
     25 H14         -9.2140    -0.8490     3.4020 hn         1 GHS       0.219133
     26 H15         -9.2220     0.7850     3.3980 hn         1 GHS       0.219133
     27 H131        -9.4770    -0.0300     4.7920 hn         1 GHS       0.219133
@<TRIPOS>BOND
     1     1     2 1   
     2     1     3 1   
     3     1    12 1   
     4     3     4 1   
     5     3    13 1   
     6     3    14 1   
     7     4     5 1   
     8     4    15 1   
     9     4    16 1   
    10     5     6 1   
    11     5    17 1   
    12     5    18 1   
    13     6     7 1   
    14     6    19 1   
    15     6    20 1   
    16     7     8 1   
    17     7    21 1   
    18     7    22 1   
    19     8     9 1   
    20     8    23 1   
    21     9    10 2   
    22     9    11 1   
    23    10    24 1   
    24    11    25 1   
    25    11    26 1   
    26    11    27 1   
@<TRIPOS>SUBSTRUCTURE
     1 GHS         1 TEMP              0 ****  ****    0 ROOT
