@<TRIPOS>MOLECULE
molecule
   67    69     1     0     0
SMALL
bcc


@<TRIPOS>ATOM
      1 O1           0.0000     0.0000     0.0000 o          1 GHV      -0.630500
      2 C34          1.2130     0.0000     0.0000 c          1 GHV       0.703500
      3 N33          1.9820     0.0000     1.1020 ns         1 GHV      -0.587900
      4 C32          3.4080     0.0090     0.7560 c3         1 GHV       0.093000
      5 C31          3.4750    -0.4210    -0.7270 c3         1 GHV      -0.096400
      6 C30          2.0790    -0.0060    -1.2390 c3         1 GHV      -0.160700
      7 C29          1.5550    -1.0260    -2.2540 c3         1 GHV      -0.072400
      8 C26          2.3730    -0.9300    -3.5430 c3         1 GHV      -0.004300
      9 C27          1.9370    -2.0110    -4.4970 c          1 GHV       0.555900
     10 O28          1.4920    -1.7160    -5.5810 o          1 GHV      -0.503100
     11 N24          2.1590     0.3820    -4.1600 ns         1 GHV      -0.568900
     12 C23          3.1110     0.9190    -4.9490 c          1 GHV       0.658100
     13 O25          4.1450     0.3160    -5.1480 o          1 GHV      -0.617100
     14 C15          2.8920     2.2680    -5.5840 c3         1 GHV       0.052700
     15 C16          1.6540     2.2120    -6.4820 c3         1 GHV      -0.044100
     16 C17          1.3620     3.5900    -7.0200 ca         1 GHV      -0.070300
     17 C22          1.9260     3.9990    -8.2140 ca         1 GHV      -0.113000
     18 C21          1.6580     5.2620    -8.7070 ca         1 GHV      -0.119500
     19 C20          0.8260     6.1160    -8.0070 ca         1 GHV      -0.125000
     20 C19          0.2620     5.7070    -6.8130 ca         1 GHV      -0.119500
     21 C18          0.5260     4.4420    -6.3230 ca         1 GHV      -0.113000
     22 N13          4.0630     2.6260    -6.3870 ns         1 GHV      -0.569900
     23 C12          4.3410     3.9220    -6.6320 c          1 GHV       0.668300
     24 O14          3.6200     4.7940    -6.1840 o          1 GHV      -0.616100
     25 C11          5.5090     4.2800    -7.4330 ce         1 GHV      -0.274200
     26 C10          5.7890     5.5780    -7.6780 cf         1 GHV      -0.004200
     27 C5           6.9640     5.9380    -8.4840 ca         1 GHV      -0.147800
     28 C6           7.2550     7.2830    -8.7380 ca         1 GHV      -0.057000
     29 C1           8.3530     7.6150    -9.4910 ca         1 GHV      -0.214500
     30 C4           7.7980     4.9350    -8.9940 ca         1 GHV      -0.057000
     31 C3           8.8940     5.2760    -9.7460 ca         1 GHV      -0.214500
     32 C2           9.1770     6.6150   -10.0020 ca         1 GHV       0.219600
     33 N7          10.2880     6.9560   -10.7640 nh         1 GHV      -0.733000
     34 C9          11.1570     5.9060   -11.3030 c3         1 GHV       0.229100
     35 C8          10.5920     8.3640   -11.0310 c3         1 GHV       0.229100
     36 H1           1.6280    -0.0050     2.0380 hn         1 GHV       0.340500
     37 H2           3.8150     1.0060     0.8750 h1         1 GHV       0.048700
     38 H3           3.9470    -0.6990     1.3750 h1         1 GHV       0.048700
     39 H4           3.6140    -1.4920    -0.8110 hc         1 GHV       0.063200
     40 H5           4.2540     0.1210    -1.2500 hc         1 GHV       0.063200
     41 H6           2.1170     0.9840    -1.6760 hc         1 GHV       0.088700
     42 H7           0.5140    -0.8180    -2.4700 hc         1 GHV       0.067700
     43 H8           1.6460    -2.0240    -1.8420 hc         1 GHV       0.067700
     44 H9           3.4250    -1.0540    -3.3130 h1         1 GHV       0.100700
     45 H10          2.0630    -3.0530    -4.2280 h4         1 GHV       0.003200
     46 H13          1.3000     0.8710    -4.0090 hn         1 GHV       0.326500
     47 H14          2.7430     3.0110    -4.8100 h1         1 GHV       0.094700
     48 H15          0.8050     1.8620    -5.9070 hc         1 GHV       0.058700
     49 H16          1.8360     1.5340    -7.3070 hc         1 GHV       0.058700
     50 H17          2.5780     3.3300    -8.7620 ha         1 GHV       0.123500
     51 H18          2.0990     5.5840    -9.6420 ha         1 GHV       0.125000
     52 H19          0.6180     7.1060    -8.3930 ha         1 GHV       0.123000
     53 H20         -0.3920     6.3750    -6.2650 ha         1 GHV       0.125000
     54 H21          0.0840     4.1210    -5.3870 ha         1 GHV       0.123500
     55 H22          4.6760     1.9110    -6.7250 hn         1 GHV       0.334500
     56 H23          6.1520     3.5030    -7.8310 ha         1 GHV       0.129000
     57 H24          5.1470     6.3550    -7.2810 ha         1 GHV       0.154000
     58 H25          6.6150     8.0610    -8.3410 ha         1 GHV       0.134000
     59 H26          8.5780     8.6560    -9.6900 ha         1 GHV       0.133000
     60 H27          7.5790     3.8930    -8.7960 ha         1 GHV       0.134000
     61 H28          9.5390     4.5020   -10.1430 ha         1 GHV       0.133000
     62 H29         10.5800     5.2570   -11.9510 h1         1 GHV       0.036700
     63 H30         11.5710     5.3260   -10.4880 h1         1 GHV       0.036700
     64 H31         11.9620     6.3590   -11.8700 h1         1 GHV       0.036700
     65 H32          9.7630     8.8180   -11.5600 h1         1 GHV       0.036700
     66 H33         11.4880     8.4320   -11.6360 h1         1 GHV       0.036700
     67 H34         10.7490     8.8830   -10.0930 h1         1 GHV       0.036700
@<TRIPOS>BOND
     1    10     9 2
     2     9     8 1
     3     7     8 1
     4     7     6 1
     5     8    11 1
     6     1     2 2
     7     2     6 1
     8     2     3 1
     9     5     6 1
    10     5     4 1
    11    11    12 1
    12     3     4 1
    13    13    12 2
    14    12    14 1
    15    15    14 1
    16    15    16 1
    17    14    22 1
    18    24    23 2
    19    16    17 ar
    20    16    21 ar
    21    17    18 ar
    22    22    23 1
    23    23    25 1
    24    21    20 ar
    25    18    19 ar
    26    26    25 2
    27    26    27 1
    28    20    19 ar
    29    27    28 ar
    30    27    30 ar
    31    28    29 ar
    32    30    31 ar
    33    29    32 ar
    34    31    32 ar
    35    32    33 1
    36    33    35 1
    37    33    34 1
    38     3    36 1
    39     4    37 1
    40     4    38 1
    41     5    39 1
    42     5    40 1
    43     6    41 1
    44     7    42 1
    45     7    43 1
    46     8    44 1
    47     9    45 1
    48    11    46 1
    49    14    47 1
    50    15    48 1
    51    15    49 1
    52    17    50 1
    53    18    51 1
    54    19    52 1
    55    20    53 1
    56    21    54 1
    57    22    55 1
    58    25    56 1
    59    26    57 1
    60    28    58 1
    61    29    59 1
    62    30    60 1
    63    31    61 1
    64    34    62 1
    65    34    63 1
    66    34    64 1
    67    35    65 1
    68    35    66 1
    69    35    67 1
@<TRIPOS>SUBSTRUCTURE
     1 GHV         1 TEMP              0 ****  ****    0 ROOT
