@<TRIPOS>MOLECULE
GHV
   67    71     1     0     0
SMALL
bcc


@<TRIPOS>ATOM
      1 O1           0.0000     0.0000     0.0000 o          1 GHV      -0.393000
      2 C34          1.2130     0.0000     0.0000 c2         1 GHV       0.230000
      3 N33          1.9820     0.0000     1.1020 ns         1 GHV      -0.007000
      4 C32          3.4080     0.0090     0.7560 c3         1 GHV      -0.075000
      5 C31          3.4750    -0.4210    -0.7270 c3         1 GHV      -0.114000
      6 C30          2.0790    -0.0060    -1.2390 c3         1 GHV      -0.131000
      7 C29          1.5550    -1.0260    -2.2540 c3         1 GHV      -0.088000
      8 C26          2.3730    -0.9300    -3.5430 c3         1 GHV      -0.145000
      9 C27          1.9370    -2.0110    -4.4970 c2         1 GHV       0.266000
     10 O28          1.4920    -1.7160    -5.5810 o          1 GHV      -0.304000
     11 N24          2.1590     0.3820    -4.1600 ns         1 GHV       0.024000
     12 C23          3.1110     0.9190    -4.9490 c2         1 GHV       0.218000
     13 O25          4.1450     0.3160    -5.1480 o          1 GHV      -0.416000
     14 C15          2.8920     2.2680    -5.5840 c3         1 GHV      -0.069000
     15 C16          1.6540     2.2120    -6.4820 c3         1 GHV      -0.069000
     16 C17          1.3620     3.5900    -7.0200 ca         1 GHV      -0.070000
     17 C22          1.9260     3.9990    -8.2140 ca         1 GHV      -0.096000
     18 C21          1.6580     5.2620    -8.7070 ca         1 GHV      -0.087500
     19 C20          0.8260     6.1160    -8.0070 ca         1 GHV      -0.094000
     20 C19          0.2620     5.7070    -6.8130 ca         1 GHV      -0.087500
     21 C18          0.5260     4.4420    -6.3230 ca         1 GHV      -0.096000
     22 N13          4.0630     2.6260    -6.3870 n7         1 GHV      -0.018000
     23 C12          4.3410     3.9220    -6.6320 c3         1 GHV       0.360000
     24 O14          3.6200     4.7940    -6.1840 o          1 GHV      -0.445000
     25 C11          5.5090     4.2800    -7.4330 c2         1 GHV      -0.190000
     26 C10          5.7890     5.5780    -7.6780 c2         1 GHV       0.005000
     27 C5           6.9640     5.9380    -8.4840 c3         1 GHV      -0.089000
     28 C6           7.2550     7.2830    -8.7380 c2         1 GHV      -0.086500
     29 C1           8.3530     7.6150    -9.4910 c2         1 GHV      -0.169500
     30 C4           7.7980     4.9350    -8.9940 c2         1 GHV      -0.086500
     31 C3           8.8940     5.2760    -9.7460 c2         1 GHV      -0.169500
     32 C2           9.1770     6.6150   -10.0020 c2         1 GHV      -0.023000
     33 N7          10.2880     6.9560   -10.7640 n3         1 GHV       0.010000
     34 C9          11.1570     5.9060   -11.3030 c3         1 GHV      -0.065000
     35 C8          10.5920     8.3640   -11.0310 c3         1 GHV      -0.065000
     36 H1           1.6280    -0.0050     2.0380 hn         1 GHV       0.110000
     37 H2           3.9470    -0.6990     1.3750 h1         1 GHV       0.057500
     38 H3           3.8150     1.0060     0.8750 h1         1 GHV       0.057500
     39 H4           4.2540     0.1210    -1.2500 hc         1 GHV       0.073000
     40 H5           3.6140    -1.4920    -0.8110 hc         1 GHV       0.073000
     41 H6           2.1170     0.9840    -1.6760 hc         1 GHV       0.096000
     42 H7           0.5140    -0.8180    -2.4700 hc         1 GHV       0.077500
     43 H8           1.6460    -2.0240    -1.8420 hc         1 GHV       0.077500
     44 H9           3.4250    -1.0540    -3.3130 h1         1 GHV       0.118000
     45 H10          2.0630    -3.0530    -4.2280 h4         1 GHV       0.060000
     46 H13          1.3000     0.8710    -4.0090 hn         1 GHV       0.101000
     47 H14          2.7430     3.0110    -4.8100 h1         1 GHV       0.108000
     48 H15          0.8050     1.8620    -5.9070 hc         1 GHV       0.067500
     49 H16          1.8360     1.5340    -7.3070 hc         1 GHV       0.067500
     50 H17          2.5780     3.3300    -8.7620 ha         1 GHV       0.098500
     51 H18          2.0990     5.5840    -9.6420 ha         1 GHV       0.098000
     52 H19          0.6180     7.1060    -8.3930 ha         1 GHV       0.099000
     53 H20         -0.3920     6.3750    -6.2650 ha         1 GHV       0.098000
     54 H21          0.0840     4.1210    -5.3870 ha         1 GHV       0.098500
     55 H22          4.6780     1.9110    -6.7220 hn         1 GHV       0.121000
     56 H23          4.4910     4.2780    -7.8030 DU         1 GHV       0.031000
     57 H24          5.8320     5.5160    -8.7590 DU         1 GHV       0.116000
     58 H25          6.6150     8.0610    -8.3410 ha         1 GHV       0.116500
     59 H26          8.5780     8.6560    -9.6900 ha         1 GHV       0.116500
     60 H27          7.5790     3.8930    -8.7960 ha         1 GHV       0.116500
     61 H28          9.5390     4.5020   -10.1430 ha         1 GHV       0.116500
     62 H29         11.9620     6.3590   -11.8690 h1         1 GHV       0.044167
     63 H30         10.5800     5.2570   -11.9510 h1         1 GHV       0.044167
     64 H31         11.5710     5.3260   -10.4880 h1         1 GHV       0.044167
     65 H32         10.7490     8.8830   -10.0930 h1         1 GHV       0.044167
     66 H33          9.7630     8.8180   -11.5600 h1         1 GHV       0.044167
     67 H34         11.4880     8.4320   -11.6360 h1         1 GHV       0.044167
@<TRIPOS>BOND
     1     1     2 1   
     2     2     3 1   
     3     2     6 1   
     4     3     4 1   
     5     3    36 1   
     6     4     5 1   
     7     4    37 1   
     8     4    38 1   
     9     5     6 1   
    10     5    39 1   
    11     5    40 1   
    12     6     7 1   
    13     6    41 1   
    14     7     8 1   
    15     7    42 1   
    16     7    43 1   
    17     8     9 1   
    18     8    11 1   
    19     8    44 1   
    20     9    10 1   
    21     9    45 1   
    22    11    12 1   
    23    11    46 1   
    24    12    13 1   
    25    12    14 1   
    26    14    15 1   
    27    14    22 1   
    28    14    47 1   
    29    15    16 1   
    30    15    48 1   
    31    15    49 1   
    32    16    17 1   
    33    16    21 1   
    34    17    18 1   
    35    17    50 1   
    36    18    19 1   
    37    18    51 1   
    38    19    20 1   
    39    19    52 1   
    40    20    21 1   
    41    20    53 1   
    42    21    54 1   
    43    22    23 1   
    44    22    55 1   
    45    23    24 1   
    46    23    25 1   
    47    23    56 1   
    48    25    26 1   
    49    25    56 1   
    50    26    27 1   
    51    26    57 1   
    52    27    28 1   
    53    27    30 1   
    54    27    57 1   
    55    28    29 1   
    56    28    58 1   
    57    29    32 1   
    58    29    59 1   
    59    30    31 1   
    60    30    60 1   
    61    31    32 1   
    62    31    61 1   
    63    32    33 1   
    64    33    34 1   
    65    33    35 1   
    66    34    62 1   
    67    34    63 1   
    68    34    64 1   
    69    35    65 1   
    70    35    66 1   
    71    35    67 1   
@<TRIPOS>SUBSTRUCTURE
     1 GHV         1 TEMP              0 ****  ****    0 ROOT
