@<TRIPOS>MOLECULE
molecule
   59    61     1     0     0
SMALL
bcc


@<TRIPOS>ATOM
      1 O1           0.0000     0.0000     0.0000 o          1 GHX      -0.629500
      2 C34          1.2120     0.0000     0.0000 c          1 GHX       0.703500
      3 N33          1.9830     0.0000     1.1010 ns         1 GHX      -0.587900
      4 C32          3.4090     0.0080     0.7550 c3         1 GHX       0.094000
      5 C31          3.4760    -0.4230    -0.7270 c3         1 GHX      -0.096400
      6 C30          2.0790    -0.0080    -1.2400 c3         1 GHX      -0.161700
      7 C29          1.5540    -1.0280    -2.2540 c3         1 GHX      -0.072400
      8 C26          2.3730    -0.9320    -3.5430 c3         1 GHX      -0.004300
      9 C27          1.9350    -2.0140    -4.4970 c          1 GHX       0.556900
     10 O28          1.4900    -1.7210    -5.5800 o          1 GHX      -0.502100
     11 N24          2.1590     0.3780    -4.1610 ns         1 GHX      -0.567900
     12 C23          3.1100     0.9150    -4.9500 c          1 GHX       0.657100
     13 O25          4.1440     0.3110    -5.1500 o          1 GHX      -0.612100
     14 C15          2.8910     2.2630    -5.5860 c3         1 GHX       0.070700
     15 C16          1.6530     2.2080    -6.4840 c3         1 GHX      -0.047100
     16 C17          1.3620     3.5860    -7.0230 ca         1 GHX      -0.072300
     17 C22          0.5350     4.4410    -6.3200 ca         1 GHX      -0.113000
     18 C21          0.2680     5.7050    -6.8140 ca         1 GHX      -0.121000
     19 C20          0.8270     6.1110    -8.0110 ca         1 GHX      -0.123000
     20 C19          1.6550     5.2550    -8.7140 ca         1 GHX      -0.121000
     21 C18          1.9260     3.9940    -8.2170 ca         1 GHX      -0.113000
     22 N13          4.0630     2.6210    -6.3910 ns         1 GHX      -0.559900
     23 C12          4.3410     3.9170    -6.6350 c          1 GHX       0.750100
     24 O14          3.6220     4.7880    -6.1890 o          1 GHX      -0.608000
     25 O11          5.4180     4.2450    -7.3750 os         1 GHX      -0.434900
     26 C10          5.6570     5.6600    -7.5970 c3         1 GHX       0.215700
     27 C1           6.8960     5.8330    -8.4390 ca         1 GHX      -0.100300
     28 C6           8.1320     5.9510    -7.8320 ca         1 GHX      -0.102000
     29 C5           9.2680     6.1090    -8.6040 ca         1 GHX      -0.133000
     30 C4           9.1670     6.1500    -9.9820 ca         1 GHX      -0.117000
     31 C3           7.9310     6.0320   -10.5880 ca         1 GHX      -0.133000
     32 C2           6.7960     5.8690    -9.8170 ca         1 GHX      -0.102000
     33 H1           1.6300    -0.0050     2.0370 hn         1 GHX       0.341500
     34 H2           3.9470    -0.6990     1.3740 h1         1 GHX       0.049200
     35 H3           3.8150     1.0060     0.8730 h1         1 GHX       0.049200
     36 H4           4.2540     0.1190    -1.2500 hc         1 GHX       0.063700
     37 H5           3.6140    -1.4940    -0.8100 hc         1 GHX       0.063700
     38 H6           2.1180     0.9820    -1.6770 hc         1 GHX       0.087700
     39 H7           0.5140    -0.8190    -2.4700 hc         1 GHX       0.068200
     40 H8           1.6450    -2.0250    -1.8420 hc         1 GHX       0.068200
     41 H9           3.4240    -1.0560    -3.3140 h1         1 GHX       0.100700
     42 H10          2.0450    -3.0560    -4.2210 h4         1 GHX       0.004200
     43 H13          1.2990     0.8680    -4.0100 hn         1 GHX       0.327500
     44 H14          2.7430     3.0070    -4.8120 h1         1 GHX       0.096700
     45 H15          0.8050     1.8580    -5.9090 hc         1 GHX       0.061200
     46 H16          1.8350     1.5290    -7.3090 hc         1 GHX       0.061200
     47 H17          0.0970     4.1230    -5.3820 ha         1 GHX       0.124500
     48 H18         -0.3810     6.3760    -6.2630 ha         1 GHX       0.125000
     49 H19          0.6160     7.1000    -8.4000 ha         1 GHX       0.125000
     50 H20          2.0950     5.5740    -9.6510 ha         1 GHX       0.125000
     51 H21          2.5740     3.3230    -8.7680 ha         1 GHX       0.124500
     52 H22          4.6730     1.9050    -6.7310 hn         1 GHX       0.345500
     53 H23          4.8080     6.0930    -8.1110 h1         1 GHX       0.056700
     54 H24          5.7960     6.1570    -6.6450 h1         1 GHX       0.056700
     55 H25          8.2110     5.9180    -6.7530 ha         1 GHX       0.133500
     56 H26         10.2370     6.2020    -8.1290 ha         1 GHX       0.131000
     57 H27         10.0570     6.2760   -10.5870 ha         1 GHX       0.130000
     58 H28          7.8520     6.0620   -11.6680 ha         1 GHX       0.131000
     59 H29          5.8270     5.7760   -10.2920 ha         1 GHX       0.133500
@<TRIPOS>BOND
     1     9    10 2
     2     9     8 1
     3     8     7 1
     4     8    11 1
     5     7     6 1
     6     1     2 2
     7     2     6 1
     8     2     3 1
     9    11    12 1
    10     6     5 1
    11     5     4 1
    12     3     4 1
    13    13    12 2
    14    12    14 1
    15    15    14 1
    16    15    16 1
    17    14    22 1
    18    16    21 ar
    19    16    17 ar
    20    21    20 ar
    21    24    23 2
    22    17    18 ar
    23    22    23 1
    24    23    25 1
    25    20    19 ar
    26    18    19 ar
    27    25    26 1
    28    26    27 1
    29    28    27 ar
    30    28    29 ar
    31    27    32 ar
    32    29    30 ar
    33    32    31 ar
    34    30    31 ar
    35     3    33 1
    36     4    34 1
    37     4    35 1
    38     5    36 1
    39     5    37 1
    40     6    38 1
    41     7    39 1
    42     7    40 1
    43     8    41 1
    44     9    42 1
    45    11    43 1
    46    14    44 1
    47    15    45 1
    48    15    46 1
    49    17    47 1
    50    18    48 1
    51    19    49 1
    52    20    50 1
    53    21    51 1
    54    22    52 1
    55    26    53 1
    56    26    54 1
    57    28    55 1
    58    29    56 1
    59    30    57 1
    60    31    58 1
    61    32    59 1
@<TRIPOS>SUBSTRUCTURE
     1 GHX         1 TEMP              0 ****  ****    0 ROOT
