@<TRIPOS>MOLECULE
GHX
   59    61     1     0     0
SMALL
bcc


@<TRIPOS>ATOM
      1 O1           0.0000     0.0000     0.0000 o          1 GHX      -0.666500
      2 C34          1.2120     0.0000     0.0000 c          1 GHX       0.623500
      3 N33          1.9830     0.0000     1.1010 ns         1 GHX      -0.198900
      4 C32          3.4090     0.0080     0.7550 c3         1 GHX       0.042000
      5 C31          3.4760    -0.4230    -0.7270 c3         1 GHX      -0.035400
      6 C30          2.0790    -0.0080    -1.2400 c3         1 GHX      -0.142700
      7 C29          1.5540    -1.0280    -2.2540 c3         1 GHX      -0.009400
      8 C26          2.3730    -0.9320    -3.5430 c3         1 GHX      -0.119300
      9 C27          1.9350    -2.0140    -4.4970 c          1 GHX       0.647900
     10 O28          1.4900    -1.7210    -5.5800 o          1 GHX      -0.542100
     11 N24          2.1590     0.3780    -4.1610 ns         1 GHX      -0.163900
     12 C23          3.1100     0.9150    -4.9500 c          1 GHX       0.572100
     13 O25          4.1440     0.3110    -5.1500 o          1 GHX      -0.656100
     14 C15          2.8910     2.2630    -5.5860 c3         1 GHX      -0.038300
     15 C16          1.6530     2.2080    -6.4840 c3         1 GHX       0.018900
     16 C17          1.3620     3.5860    -7.0230 ca         1 GHX      -0.082300
     17 C22          0.5350     4.4410    -6.3200 ca         1 GHX      -0.088000
     18 C21          0.2680     5.7050    -6.8140 ca         1 GHX      -0.092000
     19 C20          0.8270     6.1110    -8.0110 ca         1 GHX      -0.095000
     20 C19          1.6550     5.2550    -8.7140 ca         1 GHX      -0.092000
     21 C18          1.9260     3.9940    -8.2170 ca         1 GHX      -0.088000
     22 N13          4.0630     2.6210    -6.3910 ns         1 GHX      -0.155900
     23 C12          4.3410     3.9170    -6.6350 c          1 GHX       0.676100
     24 O14          3.6220     4.7880    -6.1890 o          1 GHX      -0.659000
     25 O11          5.4180     4.2450    -7.3750 os         1 GHX      -0.417900
     26 C10          5.6570     5.6600    -7.5970 c3         1 GHX       0.299700
     27 C1           6.8960     5.8330    -8.4390 ca         1 GHX      -0.118300
     28 C6           8.1320     5.9510    -7.8320 ca         1 GHX      -0.074500
     29 C5           9.2680     6.1090    -8.6040 ca         1 GHX      -0.107000
     30 C4           9.1670     6.1500    -9.9820 ca         1 GHX      -0.091000
     31 C3           7.9310     6.0320   -10.5880 ca         1 GHX      -0.107000
     32 C2           6.7960     5.8690    -9.8170 ca         1 GHX      -0.074500
     33 H1           1.6300    -0.0050     2.0370 hn         1 GHX       0.196500
     34 H2           3.9470    -0.6990     1.3740 h1         1 GHX       0.018200
     35 H3           3.8150     1.0060     0.8730 h1         1 GHX       0.018200
     36 H4           4.2540     0.1190    -1.2500 hc         1 GHX       0.033700
     37 H5           3.6140    -1.4940    -0.8100 hc         1 GHX       0.033700
     38 H6           2.1180     0.9820    -1.6770 hc         1 GHX       0.055700
     39 H7           0.5140    -0.8190    -2.4700 hc         1 GHX       0.038200
     40 H8           1.6450    -2.0250    -1.8420 hc         1 GHX       0.038200
     41 H9           3.4240    -1.0560    -3.3140 h1         1 GHX       0.078700
     42 H10          2.0450    -3.0560    -4.2210 h4         1 GHX      -0.032800
     43 H13          1.2990     0.8680    -4.0100 hn         1 GHX       0.187500
     44 H14          2.7430     3.0070    -4.8120 h1         1 GHX       0.068700
     45 H15          0.8050     1.8580    -5.9090 hc         1 GHX       0.028700
     46 H16          1.8350     1.5290    -7.3090 hc         1 GHX       0.028700
     47 H17          0.0970     4.1230    -5.3820 ha         1 GHX       0.099500
     48 H18         -0.3810     6.3760    -6.2630 ha         1 GHX       0.098000
     49 H19          0.6160     7.1000    -8.4000 ha         1 GHX       0.098000
     50 H20          2.0950     5.5740    -9.6510 ha         1 GHX       0.098000
     51 H21          2.5740     3.3230    -8.7680 ha         1 GHX       0.099500
     52 H22          4.6730     1.9050    -6.7310 hn         1 GHX       0.200500
     53 H23          4.8080     6.0930    -8.1110 h1         1 GHX       0.014700
     54 H24          5.7960     6.1570    -6.6450 h1         1 GHX       0.014700
     55 H25          8.2110     5.9180    -6.7530 ha         1 GHX       0.106000
     56 H26         10.2370     6.2020    -8.1290 ha         1 GHX       0.103000
     57 H27         10.0570     6.2760   -10.5870 ha         1 GHX       0.101000
     58 H28          7.8520     6.0620   -11.6680 ha         1 GHX       0.103000
     59 H29          5.8270     5.7760   -10.2920 ha         1 GHX       0.106000
@<TRIPOS>BOND
     1     1     2 2   
     2     2     3 1   
     3     2     6 1   
     4     3     4 1   
     5     3    33 1   
     6     4     5 1   
     7     4    34 1   
     8     4    35 1   
     9     5     6 1   
    10     5    36 1   
    11     5    37 1   
    12     6     7 1   
    13     6    38 1   
    14     7     8 1   
    15     7    39 1   
    16     7    40 1   
    17     8     9 1   
    18     8    11 1   
    19     8    41 1   
    20     9    10 2   
    21     9    42 1   
    22    11    12 1   
    23    11    43 1   
    24    12    13 2   
    25    12    14 1   
    26    14    15 1   
    27    14    22 1   
    28    14    44 1   
    29    15    16 1   
    30    15    45 1   
    31    15    46 1   
    32    16    17 ar  
    33    16    21 ar  
    34    17    18 ar  
    35    17    47 1   
    36    18    19 ar  
    37    18    48 1   
    38    19    20 ar  
    39    19    49 1   
    40    20    21 ar  
    41    20    50 1   
    42    21    51 1   
    43    22    23 1   
    44    22    52 1   
    45    23    24 2   
    46    23    25 1   
    47    25    26 1   
    48    26    27 1   
    49    26    53 1   
    50    26    54 1   
    51    27    28 ar  
    52    27    32 ar  
    53    28    29 ar  
    54    28    55 1   
    55    29    30 ar  
    56    29    56 1   
    57    30    31 ar  
    58    30    57 1   
    59    31    32 ar  
    60    31    58 1   
    61    32    59 1   
@<TRIPOS>SUBSTRUCTURE
     1 GHX         1 TEMP              0 ****  ****    0 ROOT
