@<TRIPOS>MOLECULE
molecule
   55    56     1     0     0
SMALL
bcc


@<TRIPOS>ATOM
      1 O25          0.0000     0.0000     0.0000 o          1 GHY      -0.611100
      2 C23          1.2120     0.0000     0.0000 c          1 GHY       0.658100
      3 C15          1.9660     0.0000     1.3050 c3         1 GHY       0.070700
      4 C16          2.8450    -1.2490     1.3860 c3         1 GHY      -0.047100
      5 C17          3.6900    -1.1890     2.6320 ca         1 GHY      -0.071300
      6 C22          3.2170    -1.7280     3.8130 ca         1 GHY      -0.113500
      7 C21          3.9920    -1.6730     4.9570 ca         1 GHY      -0.120500
      8 C20          5.2400    -1.0800     4.9190 ca         1 GHY      -0.123000
      9 C19          5.7130    -0.5400     3.7370 ca         1 GHY      -0.120500
     10 C18          4.9400    -0.6000     2.5930 ca         1 GHY      -0.113500
     11 N13          1.0140    -0.0010     2.4180 ns         1 GHY      -0.560900
     12 C12          1.3800     0.4920     3.6180 c          1 GHY       0.751100
     13 O11          0.5040     0.4910     4.6420 os         1 GHY      -0.435900
     14 C10          0.9670     1.0370     5.9050 c3         1 GHY       0.162100
     15 C1           0.6660     2.5360     5.9530 c3         1 GHY      -0.104600
     16 C5           0.2470     0.3350     7.0580 c3         1 GHY      -0.104600
     17 O14          2.4990     0.9360     3.7770 o          1 GHY      -0.608000
     18 N24          1.8860    -0.0050    -1.1680 ns         1 GHY      -0.568900
     19 C26          1.1540    -0.0100    -2.4360 c3         1 GHY      -0.005300
     20 C27          0.8370    -1.4300    -2.8270 c          1 GHY       0.555900
     21 O28          1.1870    -2.3440    -2.1190 o          1 GHY      -0.503100
     22 C29          2.0130     0.6390    -3.5240 c3         1 GHY      -0.071400
     23 C30          2.2290     2.1160    -3.1890 c3         1 GHY      -0.159700
     24 C31          0.8880     2.8830    -3.2330 c3         1 GHY      -0.097400
     25 C32          1.3230     4.2450    -3.8170 c3         1 GHY       0.093000
     26 N33          2.5410     3.9690    -4.5900 ns         1 GHY      -0.588900
     27 C34          3.0730     2.7810    -4.2530 c          1 GHY       0.703500
     28 O1           4.0840     2.3120    -4.7330 o          1 GHY      -0.629500
     29 H1           2.5890     0.8850     1.3630 h1         1 GHY       0.096700
     30 H2           3.4880    -1.2950     0.5150 hc         1 GHY       0.060700
     31 H3           2.2170    -2.1320     1.4170 hc         1 GHY       0.060700
     32 H4           2.2390    -2.1930     3.8430 ha         1 GHY       0.124000
     33 H5           3.6210    -2.0960     5.8830 ha         1 GHY       0.125000
     34 H6           5.8460    -1.0350     5.8160 ha         1 GHY       0.125000
     35 H7           6.6910    -0.0770     3.7060 ha         1 GHY       0.125000
     36 H8           5.3100    -0.1770     1.6670 ha         1 GHY       0.124000
     37 H9           0.0800    -0.3310     2.2770 hn         1 GHY       0.344500
     38 H10          2.0350     0.8810     5.9970 h1         1 GHY       0.075700
     39 H11          1.3530     3.0640     5.3030 hc         1 GHY       0.046533
     40 H12          0.7810     2.8960     6.9690 hc         1 GHY       0.046533
     41 H13         -0.3510     2.7110     5.6220 hc         1 GHY       0.046533
     42 H14         -0.7990     0.6170     7.0570 hc         1 GHY       0.046533
     43 H15          0.6980     0.6280     7.9980 hc         1 GHY       0.046533
     44 H16          0.3310    -0.7380     6.9370 hc         1 GHY       0.046533
     45 H17          2.8870    -0.0400    -1.1670 hn         1 GHY       0.326500
     46 H18          0.2330     0.5480    -2.3230 h1         1 GHY       0.101700
     47 H19          0.2680    -1.6290    -3.7270 h4         1 GHY       0.004200
     48 H22          1.5090     0.5550    -4.4790 hc         1 GHY       0.068200
     49 H23          2.9710     0.1360    -3.5750 hc         1 GHY       0.068200
     50 H24          2.6940     2.2260    -2.2160 hc         1 GHY       0.087700
     51 H25          0.1830     2.3900    -3.8910 hc         1 GHY       0.064200
     52 H26          0.4800     3.0050    -2.2370 hc         1 GHY       0.064200
     53 H27          1.5390     4.9430    -3.0170 h1         1 GHY       0.049200
     54 H28          0.5500     4.6370    -4.4670 h1         1 GHY       0.049200
     55 H29          2.9250     4.5860    -5.2790 hn         1 GHY       0.341500
@<TRIPOS>BOND
     1    20    21 2
     2    20    19 1
     3    22    19 1
     4    22    23 1
     5    19    18 1
     6    28    27 2
     7    27    23 1
     8    27    26 1
     9    23    24 1
    10    24    25 1
    11    18     2 1
    12    26    25 1
    13     1     2 2
    14     2     3 1
    15     3     4 1
    16     3    11 1
    17     4     5 1
    18     5     6 ar
    19     5    10 ar
    20    11    12 1
    21    17    12 2
    22     6     7 ar
    23    10     9 ar
    24    12    13 1
    25     7     8 ar
    26     9     8 ar
    27    13    14 1
    28    16    14 1
    29    14    15 1
    30     3    29 1
    31     4    30 1
    32     4    31 1
    33     6    32 1
    34     7    33 1
    35     8    34 1
    36     9    35 1
    37    10    36 1
    38    11    37 1
    39    14    38 1
    40    15    39 1
    41    15    40 1
    42    15    41 1
    43    16    42 1
    44    16    43 1
    45    16    44 1
    46    18    45 1
    47    19    46 1
    48    20    47 1
    49    22    48 1
    50    22    49 1
    51    23    50 1
    52    24    51 1
    53    24    52 1
    54    25    53 1
    55    25    54 1
    56    26    55 1
@<TRIPOS>SUBSTRUCTURE
     1 GHY         1 TEMP              0 ****  ****    0 ROOT
