@<TRIPOS>MOLECULE
GHZ
   58    59     1     0     0
SMALL
bcc


@<TRIPOS>ATOM
      1 O25          0.0000     0.0000     0.0000 o          1 GHZ      -0.671100
      2 C23          1.2140     0.0000     0.0000 c          1 GHZ       0.601100
      3 C15          1.9670     0.0000     1.3050 c3         1 GHZ      -0.041300
      4 C16          2.8460    -1.2490     1.3860 c3         1 GHZ       0.017900
      5 C17          3.6910    -1.1880     2.6330 ca         1 GHZ      -0.074300
      6 C22          3.2180    -1.7260     3.8150 ca         1 GHZ      -0.088500
      7 C21          3.9930    -1.6710     4.9590 ca         1 GHZ      -0.092500
      8 C20          5.2410    -1.0760     4.9200 ca         1 GHZ      -0.099000
      9 C19          5.7130    -0.5390     3.7370 ca         1 GHZ      -0.092500
     10 C18          4.9410    -0.6000     2.5930 ca         1 GHZ      -0.088500
     11 N13          1.0150     0.0010     2.4190 ns         1 GHZ      -0.149900
     12 C12          1.3820     0.4950     3.6170 c          1 GHZ       0.675100
     13 O11          0.5080     0.4960     4.6410 os         1 GHZ      -0.423900
     14 C10          0.9710     1.0430     5.9040 c3         1 GHZ       0.241400
     15 C1          -0.1530     0.9600     6.9390 c3         1 GHZ      -0.067700
     16 O14          2.5020     0.9390     3.7760 o          1 GHZ      -0.662000
     17 N24          1.8870    -0.0070    -1.1670 ns         1 GHZ      -0.158900
     18 C26          1.1540    -0.0130    -2.4360 c3         1 GHZ      -0.109300
     19 C27          0.7950    -1.4300    -2.8010 c          1 GHZ       0.642900
     20 O28          1.1180    -2.3410    -2.0770 o          1 GHZ      -0.541100
     21 C29          2.0310     0.5900    -3.5350 c3         1 GHZ      -0.007400
     22 C30          2.2930     2.0660    -3.2260 c3         1 GHZ      -0.139700
     23 C31          3.1520     2.7070    -4.3390 c3         1 GHZ      -0.029400
     24 C32          4.5790     2.5480    -3.7660 c3         1 GHZ       0.037000
     25 N33          4.4100     2.4790    -2.3100 ns         1 GHZ      -0.193900
     26 C34          3.1370     2.2040    -1.9790 c          1 GHZ       0.618500
     27 O1           2.7260     2.0850    -0.8440 o          1 GHZ      -0.676500
     28 C2          -0.4720    -0.5080     7.2280 c3         1 GHZ       0.009400
     29 C3           0.2910     1.6480     8.2310 c3         1 GHZ       0.009400
     30 H1           2.5890     0.8850     1.3610 h1         1 GHZ       0.088700
     31 H2           2.2180    -2.1310     1.4190 hc         1 GHZ       0.024700
     32 H3           3.4890    -1.2950     0.5160 hc         1 GHZ       0.024700
     33 H4           2.2400    -2.1920     3.8460 ha         1 GHZ       0.098500
     34 H5           3.6230    -2.0920     5.8860 ha         1 GHZ       0.096500
     35 H6           5.8470    -1.0300     5.8160 ha         1 GHZ       0.097000
     36 H7           6.6920    -0.0760     3.7060 ha         1 GHZ       0.096500
     37 H8           5.3120    -0.1790     1.6660 ha         1 GHZ       0.098500
     38 H9           0.0820    -0.3330     2.2800 hn         1 GHZ       0.196500
     39 H10          1.8250     0.4750     6.2520 h1         1 GHZ       0.013200
     40 H11          1.2580     2.0780     5.7650 h1         1 GHZ       0.013200
     41 H12         -1.0370     1.4530     6.5530 hc         1 GHZ       0.032700
     42 H13          2.8880     0.0050    -1.1680 hn         1 GHZ       0.190500
     43 H14          0.2490     0.5740    -2.3330 h1         1 GHZ       0.081700
     44 H15          0.2460    -1.6320    -3.7130 h4         1 GHZ      -0.037800
     45 H18          2.9730     0.0580    -3.5780 hc         1 GHZ       0.025200
     46 H19          1.5240     0.5060    -4.4890 hc         1 GHZ       0.025200
     47 H20          1.3610     2.6060    -3.1120 hc         1 GHZ       0.064700
     48 H21          2.9020     3.7530    -4.4650 hc         1 GHZ       0.032700
     49 H22          3.0480     2.1610    -5.2690 hc         1 GHZ       0.032700
     50 H23          5.0290     1.6340    -4.1340 h1         1 GHZ       0.018700
     51 H24         -1.0510    -0.5790     8.1400 hc         1 GHZ       0.004200
     52 H25          0.4510    -1.0630     7.3420 hc         1 GHZ       0.004200
     53 H26         -1.0430    -0.9210     6.4050 hc         1 GHZ       0.004200
     54 H27          1.1890     1.1700     8.6040 hc         1 GHZ       0.004200
     55 H28          0.4950     2.6930     8.0310 hc         1 GHZ       0.004200
     56 H29         -0.4960     1.5680     8.9710 hc         1 GHZ       0.004200
     57 H16          5.1850     3.4060    -4.0320 h1         1 GHZ       0.018700
     58 H17          5.1490     2.6190    -1.6490 hn         1 GHZ       0.198500
@<TRIPOS>BOND
     1     1     2 2   
     2     2     3 1   
     3     2    17 1   
     4     3     4 1   
     5     3    11 1   
     6     3    30 1   
     7     4     5 1   
     8     4    31 1   
     9     4    32 1   
    10     5     6 ar  
    11     5    10 ar  
    12     6     7 ar  
    13     6    33 1   
    14     7     8 ar  
    15     7    34 1   
    16     8     9 ar  
    17     8    35 1   
    18     9    10 ar  
    19     9    36 1   
    20    10    37 1   
    21    11    12 1   
    22    11    38 1   
    23    12    13 1   
    24    12    16 2   
    25    13    14 1   
    26    14    15 1   
    27    14    39 1   
    28    14    40 1   
    29    15    28 1   
    30    15    29 1   
    31    15    41 1   
    32    17    18 1   
    33    17    42 1   
    34    18    19 1   
    35    18    21 1   
    36    18    43 1   
    37    19    20 2   
    38    19    44 1   
    39    21    22 1   
    40    21    45 1   
    41    21    46 1   
    42    22    23 1   
    43    22    26 1   
    44    22    47 1   
    45    23    24 1   
    46    23    48 1   
    47    23    49 1   
    48    24    25 1   
    49    24    50 1   
    50    24    57 1   
    51    25    26 1   
    52    25    58 1   
    53    26    27 2   
    54    28    51 1   
    55    28    52 1   
    56    28    53 1   
    57    29    54 1   
    58    29    55 1   
    59    29    56 1   
@<TRIPOS>SUBSTRUCTURE
     1 GHZ         1 TEMP              0 ****  ****    0 ROOT
