@<TRIPOS>MOLECULE
GI1
   35    36     1     0     0
SMALL
bcc


@<TRIPOS>ATOM
      1 C1         -0.1370   -0.2150    0.0720 cc        1 GI1      0.024100
      2 C2          1.3700   -0.2560    0.0360 c3        1 GI1      0.215400
      3 O2          1.7400   -1.4300   -0.6570 oh        1 GI1     -0.594800
      4 C3          1.8820   -0.2580    1.4900 c3        1 GI1      0.107100
      5 O3          3.2840   -0.1110    1.3890 oh        1 GI1     -0.589800
      6 C4          1.2670    0.9250    2.2600 c3        1 GI1      0.098100
      7 C80        -2.2330    0.1800    0.8170 cc        1 GI1     -0.094300
      8 N10        -0.8720    0.2940    1.1290 na        1 GI1     -0.012100
      9 O4          1.7810    0.8310    3.5740 oh        1 GI1     -0.582800
     10 C5         -0.2850    0.8290    2.3480 c3        1 GI1      0.004000
     11 C6         -0.8510    2.2120    2.7350 c3        1 GI1      0.117400
     12 O6         -0.4520    3.1350    1.7400 oh        1 GI1     -0.609800
     13 N1         -1.0100   -0.6560   -0.8910 na        1 GI1     -0.089100
     14 C7         -2.3210   -0.4220   -0.4500 cd        1 GI1     -0.114600
     15 C8         -3.5720   -0.7860   -1.2060 c3        1 GI1      0.409200
     16 O8         -4.4650    0.2890   -1.2680 oh        1 GI1     -0.597800
     17 O9         -3.2110   -1.0880   -2.5390 os        1 GI1     -0.470600
     18 H2          1.7500    0.6550   -0.5150 h1        1 GI1      0.111700
     19 H1         -0.7540   -1.0950   -1.7530 hn        1 GI1      0.376700
     20 HA          2.6970   -1.5390   -0.5290 ho        1 GI1      0.466000
     21 H3          1.6310   -1.2290    2.0000 h1        1 GI1      0.084700
     22 HB          3.6340   -0.1080    2.2930 ho        1 GI1      0.450000
     23 H4          1.5580    1.8960    1.7680 h1        1 GI1      0.101700
     24 HC          1.8560    1.7280    3.9270 ho        1 GI1      0.433000
     25 H5         -0.5490    0.1080    3.1840 h1        1 GI1      0.115700
     26 H80        -3.0300    0.5250    1.4830 h4        1 GI1      0.233000
     27 H6C1       -1.9700    2.1800    2.8190 h1        1 GI1      0.058700
     28 H6C2       -0.4080    2.4890    3.7310 h1        1 GI1      0.058700
     29 H6         -0.8120    3.9970    1.9880 ho        1 GI1      0.438000
     30 H8         -4.1120   -1.6260   -0.6800 h2        1 GI1      0.116700
     31 HD         -4.1670    0.9060   -1.9520 ho        1 GI1      0.439000
     32 H9C1       -5.1770   -1.3370   -3.2130 h1        1 GI1      0.060700
     33 H9C2       -3.7890   -1.9120   -4.2820 h1        1 GI1      0.060700
     34 H9C3       -4.2670   -2.8770   -2.7850 h1        1 GI1      0.060700
     35 C9         -4.1890   -1.8580   -3.2380 c3        1 GI1      0.116700
@<TRIPOS>BOND
     1    1    2 1   
     2    1    8 2   
     3    1   13 1   
     4    2    3 1   
     5    2    4 1   
     6    2   18 1   
     7    3   20 1   
     8    4    5 1   
     9    4    6 1   
    10    4   21 1   
    11    5   22 1   
    12    6    9 1   
    13    6   10 1   
    14    6   23 1   
    15    7    8 1   
    16    7   14 2   
    17    7   26 1   
    18    8   10 1   
    19    9   24 1   
    20   10   11 1   
    21   10   25 1   
    22   11   12 1   
    23   11   27 1   
    24   11   28 1   
    25   12   29 1   
    26   13   14 1   
    27   13   19 1   
    28   14   15 1   
    29   15   16 1   
    30   15   17 1   
    31   15   30 1   
    32   16   31 1   
    33   17   35 1   
    34   32   35 1   
    35   33   35 1   
    36   34   35 1   
@<TRIPOS>SUBSTRUCTURE
     1 GI1         1 TEMP              0 ****  ****    0 ROOT
