@<TRIPOS>MOLECULE
molecule
   35    36     1     0     0
SMALL
bcc


@<TRIPOS>ATOM
      1 C1           0.0000     0.0000     0.0000 cc         1 GI1       0.024100
      2 C2           1.4810     0.0000     0.0000 c3         1 GI1       0.196400
      3 O2           1.9090    -1.1680    -0.6790 oh         1 GI1      -0.579800
      4 C3           2.0070     0.0000     1.4350 c3         1 GI1       0.116100
      5 O3           3.3780     0.4030     1.3790 oh         1 GI1      -0.586800
      6 C4           1.2290     0.9790     2.3290 c3         1 GI1       0.132100
      7 C80         -2.1320     0.1930     0.6940 cc         1 GI1      -0.098300
      8 N10         -0.8020     0.3500     1.0820 na         1 GI1      -0.008100
      9 O4           1.7590     0.9180     3.6550 oh         1 GI1      -0.584800
     10 C5          -0.2780     0.6370     2.4080 c3         1 GI1       0.042000
     11 C6          -1.0410     1.7850     3.0760 c3         1 GI1       0.134400
     12 O6          -0.8460     2.9570     2.3070 oh         1 GI1      -0.618800
     13 N1          -0.8590    -0.3060    -1.0370 na         1 GI1      -0.096100
     14 C7          -2.1710    -0.1950    -0.5980 cd         1 GI1      -0.081600
     15 C8          -3.3350    -0.4920    -1.4590 c3         1 GI1       0.407200
     16 O8          -3.3910     0.3990    -2.5750 oh         1 GI1      -0.607800
     17 O9          -3.2510    -1.8580    -1.8820 os         1 GI1      -0.411600
     18 H2           1.8430     0.8800    -0.5180 h1         1 GI1       0.103700
     19 H1          -0.5790    -0.5780    -1.9590 hn         1 GI1       0.368700
     20 HA           2.4680    -0.9270    -1.3990 ho         1 GI1       0.440000
     21 H3           1.9350    -1.0000     1.8460 h1         1 GI1       0.084700
     22 HB           3.9270    -0.3080     1.6640 ho         1 GI1       0.438000
     23 H4           1.3440     1.9830     1.9400 h1         1 GI1       0.087700
     24 HC           2.3570     1.6350     3.7880 ho         1 GI1       0.441000
     25 H5          -0.3910    -0.2520     3.0160 h1         1 GI1       0.111700
     26 H80         -2.9960     0.3680     1.3240 h4         1 GI1       0.220000
     27 H6C1        -2.0970     1.5470     3.1160 h1         1 GI1       0.058700
     28 H6C2        -0.6630     1.9400     4.0790 h1         1 GI1       0.058700
     29 H6          -1.3340     3.6680     2.6880 ho         1 GI1       0.435000
     30 H8          -4.2380    -0.3670    -0.8740 h2         1 GI1       0.056700
     31 HD          -3.9440     1.1330    -2.3650 ho         1 GI1       0.436000
     32 H9C1        -4.3230    -3.3200    -2.8490 h1         1 GI1       0.053033
     33 H9C2        -5.2680    -1.9430    -2.2660 h1         1 GI1       0.053033
     34 H9C3        -4.2290    -1.7640    -3.6860 h1         1 GI1       0.053033
     35 C9          -4.3320    -2.2440    -2.7210 c3         1 GI1       0.123700
@<TRIPOS>BOND
     1     1     2 1
     2     1     8 2
     3     1    13 1
     4     2     3 1
     5     2     4 1
     6     2    18 1
     7     3    20 1
     8     4     5 1
     9     4     6 1
    10     4    21 1
    11     5    22 1
    12     6     9 1
    13     6    10 1
    14     6    23 1
    15     7     8 1
    16     7    14 2
    17     7    26 1
    18     8    10 1
    19     9    24 1
    20    10    11 1
    21    10    25 1
    22    11    12 1
    23    11    27 1
    24    11    28 1
    25    12    29 1
    26    13    14 1
    27    13    19 1
    28    14    15 1
    29    15    16 1
    30    15    17 1
    31    15    30 1
    32    16    31 1
    33    35    17 1
    34    35    32 1
    35    35    33 1
    36    35    34 1
@<TRIPOS>SUBSTRUCTURE
     1 GI1         1 TEMP              0 ****  ****    0 ROOT
