@<TRIPOS>MOLECULE
molecule
   36    37     1     0     0
SMALL
bcc


@<TRIPOS>ATOM
      1 C1           0.0000     0.0000     0.0000 c3         1 GI2      -0.084100
      2 C2           1.5170     0.0000     0.0000 c          1 GI2       0.631100
      3 C4           3.3820    -0.3470    -1.4160 c3         1 GI2       0.121700
      4 C1B         -1.3630     0.0000     3.4120 cc         1 GI2       0.028100
      5 C2B         -1.8380    -0.6200     4.6700 c3         1 GI2       0.195400
      6 C3B         -2.6910     0.3740     5.4570 c3         1 GI2       0.116100
      7 C4B         -2.0680     1.7790     5.4690 c3         1 GI2       0.132100
      8 C5B         -1.9020     2.3640     4.0470 c3         1 GI2       0.041000
      9 C6B         -1.0370     3.6270     4.0970 c3         1 GI2       0.135400
     10 O2B         -2.6070    -1.7590     4.3220 oh         1 GI2      -0.583800
     11 O3B         -2.7740    -0.1150     6.7980 oh         1 GI2      -0.586800
     12 O4B         -2.9200     2.6580     6.2050 oh         1 GI2      -0.584800
     13 N1B         -1.3350     1.3670     3.1510 na         1 GI2      -0.002100
     14 O6B          0.2270     3.2810     4.6330 oh         1 GI2      -0.615800
     15 N2B         -0.8430    -0.6190     2.2920 na         1 GI2      -0.122100
     16 C7B         -0.5410     0.3390     1.3330 cc         1 GI2      -0.061600
     17 C8B         -0.8530     1.5440     1.8550 cd         1 GI2      -0.092300
     18 O1           1.9600    -0.3230    -1.2520 os         1 GI2      -0.408900
     19 O5           2.2250     0.2620     0.9630 o          1 GI2      -0.505000
     20 H1C1        -0.3540    -0.9830    -0.2860 hc         1 GI2       0.110700
     21 H1C2        -0.3540     0.7270    -0.7210 hc         1 GI2       0.110700
     22 H4C1         3.8100    -1.0800    -0.7420 h1         1 GI2       0.061033
     23 H4C2         3.7880     0.6310    -1.1910 h1         1 GI2       0.061033
     24 H4C3         3.6230    -0.6120    -2.4380 h1         1 GI2       0.061033
     25 H2B         -0.9870    -0.9200     5.2690 h1         1 GI2       0.106700
     26 HA          -0.7050    -1.6040     2.1870 hn         1 GI2       0.355700
     27 H3B         -3.6820     0.4220     5.0220 h1         1 GI2       0.082700
     28 HB          -2.2450    -2.5230     4.7400 ho         1 GI2       0.440000
     29 H4B         -1.0970     1.7320     5.9480 h1         1 GI2       0.089700
     30 HC          -3.6680    -0.3380     6.9970 ho         1 GI2       0.437000
     31 H5B         -2.8840     2.6330     3.6750 h1         1 GI2       0.109700
     32 HD          -2.5890     2.7570     7.0820 ho         1 GI2       0.441000
     33 H6B1        -1.5100     4.3690     4.7290 h1         1 GI2       0.058700
     34 H6B2        -0.9130     4.0250     3.0970 h1         1 GI2       0.058700
     35 H6B          0.7830     4.0420     4.6430 ho         1 GI2       0.436000
     36 H8B         -0.7470     2.4950     1.3480 h4         1 GI2       0.223000
@<TRIPOS>BOND
     1     1     2 1
     2     1    16 1
     3     1    20 1
     4     1    21 1
     5     2    18 1
     6     2    19 2
     7     3    18 1
     8     3    22 1
     9     3    23 1
    10     3    24 1
    11     4     5 1
    12     4    13 2
    13     4    15 1
    14     5     6 1
    15     5    10 1
    16     5    25 1
    17     6     7 1
    18     6    11 1
    19     6    27 1
    20     7     8 1
    21     7    12 1
    22     7    29 1
    23     8     9 1
    24     8    13 1
    25     8    31 1
    26     9    14 1
    27     9    33 1
    28     9    34 1
    29    10    28 1
    30    11    30 1
    31    12    32 1
    32    13    17 1
    33    14    35 1
    34    15    16 1
    35    15    26 1
    36    16    17 2
    37    17    36 1
@<TRIPOS>SUBSTRUCTURE
     1 GI2         1 TEMP              0 ****  ****    0 ROOT
