@<TRIPOS>MOLECULE
GI2
   36    37     1     0     0
SMALL
bcc


@<TRIPOS>ATOM
      1 C1          0.2830    0.6310   -0.0430 c3        1 GI2     -0.082100
      2 C2          1.3320   -0.4370   -0.1610 c         1 GI2      0.637100
      3 C4          3.1410   -1.2510   -1.4760 c3        1 GI2      0.123700
      4 C1B        -0.9460    0.2460    3.4090 cc        1 GI2      0.031100
      5 C2B        -1.1800   -0.4680    4.7170 c3        1 GI2      0.215400
      6 C3B        -2.4130    0.1640    5.3950 c3        1 GI2      0.106100
      7 C4B        -2.2370    1.6910    5.4830 c3        1 GI2      0.098100
      8 C5B        -2.1340    2.3520    4.0760 c3        1 GI2      0.004000
      9 C6B        -1.5670    3.7780    4.2350 c3        1 GI2      0.117400
     10 O2B        -1.3870   -1.8320    4.4170 oh        1 GI2     -0.590800
     11 O3B        -2.4570   -0.4060    6.6870 oh        1 GI2     -0.589800
     12 O4B        -3.4130    2.1750    6.1010 oh        1 GI2     -0.582800
     13 N1B        -1.3760    1.5340    3.1420 na        1 GI2     -0.010100
     14 O6B        -0.2900    3.6710    4.8340 oh        1 GI2     -0.608800
     15 N2B        -0.2970   -0.2350    2.3010 na        1 GI2     -0.098100
     16 C7B        -0.2940    0.7630    1.3100 cc        1 GI2     -0.067600
     17 C8B        -0.9710    1.8750    1.8450 cd        1 GI2     -0.117300
     18 O1          2.1320   -0.2560   -1.2400 os        1 GI2     -0.411900
     19 O5          1.5100   -1.4150    0.5730 o         1 GI2     -0.559000
     20 H1C1       -0.5370    0.3820   -0.7790 hc        1 GI2      0.124700
     21 H1C2        0.7270    1.6190   -0.3550 hc        1 GI2      0.124700
     22 H4C1        2.6600   -2.2460   -1.6290 h1        1 GI2      0.068700
     23 H4C2        3.8430   -1.2850   -0.6090 h1        1 GI2      0.068700
     24 H4C3        3.6440   -0.8830   -2.4050 h1        1 GI2      0.068700
     25 H2B        -0.2660   -0.3460    5.3710 h1        1 GI2      0.111700
     26 HA          0.1210   -1.1480    2.2100 hn        1 GI2      0.392700
     27 H3B        -3.3520   -0.0900    4.8270 h1        1 GI2      0.084700
     28 HB         -1.6740   -2.2570    5.2430 ho        1 GI2      0.465000
     29 H4B        -1.3180    1.9380    6.0840 h1        1 GI2      0.101700
     30 HC         -3.2320   -0.0330    7.1350 ho        1 GI2      0.449000
     31 H5B        -3.1830    2.4490    3.6520 h1        1 GI2      0.115700
     32 HD         -3.1730    2.9520    6.6240 ho        1 GI2      0.433000
     33 H6B1       -1.4930    4.2950    3.2410 h1        1 GI2      0.057200
     34 H6B2       -2.2720    4.3480    4.9010 h1        1 GI2      0.057200
     35 H6B         0.0470    4.5690    4.9550 ho        1 GI2      0.437000
     36 H8B        -1.1790    2.8510    1.4000 h4        1 GI2      0.225000
@<TRIPOS>BOND
     1    1    2 1   
     2    1   16 1   
     3    1   20 1   
     4    1   21 1   
     5    2   18 1   
     6    2   19 2   
     7    3   18 1   
     8    3   22 1   
     9    3   23 1   
    10    3   24 1   
    11    4    5 1   
    12    4   13 2   
    13    4   15 1   
    14    5    6 1   
    15    5   10 1   
    16    5   25 1   
    17    6    7 1   
    18    6   11 1   
    19    6   27 1   
    20    7    8 1   
    21    7   12 1   
    22    7   29 1   
    23    8    9 1   
    24    8   13 1   
    25    8   31 1   
    26    9   14 1   
    27    9   33 1   
    28    9   34 1   
    29   10   28 1   
    30   11   30 1   
    31   12   32 1   
    32   13   17 1   
    33   14   35 1   
    34   15   16 1   
    35   15   26 1   
    36   16   17 2   
    37   17   36 1   
@<TRIPOS>SUBSTRUCTURE
     1 GI2         1 TEMP              0 ****  ****    0 ROOT
