@<TRIPOS>MOLECULE
GI3
   29    30     1     0     0
SMALL
bcc


@<TRIPOS>ATOM
      1 C1          0.0350    0.0990   -0.0120 cc        1 GI3     -0.086900
      2 C2          1.5270    0.2300    0.1000 c3        1 GI3      0.176400
      3 O2          2.1700   -0.2770   -1.0500 oh        1 GI3     -0.574800
      4 C3          2.0290   -0.6220    1.2890 c3        1 GI3      0.149100
      5 C80        -2.1160   -0.2260    0.6110 cc        1 GI3     -0.159300
      6 O3          3.3650   -0.2430    1.5560 oh        1 GI3     -0.577800
      7 C4          1.2320   -0.3200    2.5710 c3        1 GI3      0.153100
      8 N10        -0.7880   -0.1860    1.0620 na        1 GI3     -0.016100
      9 O4          1.6260   -1.3100    3.5010 oh        1 GI3     -0.576800
     10 C5         -0.3140   -0.4300    2.4050 c3        1 GI3     -0.010000
     11 C6         -0.9910    0.5200    3.4260 c3        1 GI3      0.118400
     12 O6         -0.4720    0.1430    4.6900 oh        1 GI3     -0.615800
     13 N1         -0.7590    0.2260   -1.1260 na        1 GI3     -0.101100
     14 C7         -2.0990    0.0340   -0.7710 cd        1 GI3     -0.101900
     15 C8         -3.2600    0.1390   -1.8080 c         1 GI3      0.956200
     16 O8         -4.3950   -0.0400   -1.3290 o         1 GI3     -0.746800
     17 O9         -2.8840    0.3950   -2.9720 o         1 GI3     -0.746800
     18 H2          1.7870    1.3150    0.2690 h1        1 GI3      0.087700
     19 H1         -0.4580    0.3900   -2.0620 hn        1 GI3      0.357700
     20 HA          2.1900    0.4260   -1.7120 ho        1 GI3      0.422000
     21 H3          1.9590   -1.7150    1.0350 h1        1 GI3      0.089700
     22 HB          3.9170   -0.7010    0.9080 ho        1 GI3      0.426000
     23 H4          1.4980    0.7080    2.9420 h1        1 GI3      0.073700
     24 H80        -2.9680   -0.4380    1.2610 h4        1 GI3      0.222000
     25 H5         -0.6060   -1.4930    2.6760 h1        1 GI3      0.114700
     26 HC          1.3780   -0.9910    4.3810 ho        1 GI3      0.435000
     27 H6C1       -0.7280    1.5910    3.2170 h1        1 GI3      0.050700
     28 H6C2       -2.1060    0.3930    3.3970 h1        1 GI3      0.050700
     29 H6         -1.0430    0.5400    5.3590 ho        1 GI3      0.430000
@<TRIPOS>BOND
     1    1    2 1   
     2    1    8 2   
     3    1   13 1   
     4    2    3 1   
     5    2    4 1   
     6    2   18 1   
     7    3   20 1   
     8    4    6 1   
     9    4    7 1   
    10    4   21 1   
    11    5    8 1   
    12    5   14 2   
    13    5   24 1   
    14    6   22 1   
    15    7    9 1   
    16    7   10 1   
    17    7   23 1   
    18    8   10 1   
    19    9   26 1   
    20   10   11 1   
    21   10   25 1   
    22   11   12 1   
    23   11   27 1   
    24   11   28 1   
    25   12   29 1   
    26   13   14 1   
    27   13   19 1   
    28   14   15 1   
    29   15   16 1   
    30   15   17 1   
@<TRIPOS>SUBSTRUCTURE
     1 GI3         1 TEMP              0 ****  ****    0 ROOT
