@<TRIPOS>MOLECULE
molecule
   29    30     1     0     0
SMALL
bcc


@<TRIPOS>ATOM
      1 C1           0.0000     0.0000     0.0000 cc         1 GI3      -0.036900
      2 C2           1.4820     0.0000     0.0000 c3         1 GI3       0.213400
      3 O2           1.8280    -1.2050    -0.6680 oh         1 GI3      -0.564800
      4 C3           2.0280     0.0000     1.4320 c3         1 GI3       0.126100
      5 C80         -2.1400    -0.2390     0.6780 cc         1 GI3      -0.112300
      6 O3           2.0950     1.3370     1.9160 oh         1 GI3      -0.598800
      7 C4           1.1900    -0.8540     2.4060 c3         1 GI3       0.139100
      8 N10         -0.8120    -0.2820     1.0970 na         1 GI3      -0.013100
      9 O4           1.3330    -2.2260     2.0300 oh         1 GI3      -0.582800
     10 C5          -0.3170    -0.5000     2.4450 c3         1 GI3       0.047000
     11 C6          -0.6020     0.7360     3.3010 c3         1 GI3       0.126400
     12 O6          -0.1760     0.4700     4.6220 oh         1 GI3      -0.612800
     13 N1          -0.8530     0.2140    -1.0660 na         1 GI3      -0.106100
     14 C7          -2.1560     0.0610    -0.6330 cd         1 GI3      -0.066900
     15 C8          -3.3180     0.2120    -1.4860 c          1 GI3       0.889200
     16 O8          -4.4520     0.0030    -0.7750 o          1 GI3      -0.773300
     17 O9          -3.2850     0.4880    -2.6820 o          1 GI3      -0.773300
     18 H2           1.8560     0.8580    -0.5450 h1         1 GI3       0.072700
     19 H1          -0.5720     0.4410    -2.0000 hn         1 GI3       0.351700
     20 HA           2.4420    -1.0160    -1.3590 ho         1 GI3       0.415000
     21 H3           3.0320    -0.4070     1.4070 h1         1 GI3       0.066700
     22 HB           2.9960     1.6140     1.9500 ho         1 GI3       0.420000
     23 H4           1.5940    -0.7240     3.4030 h1         1 GI3       0.083700
     24 H80         -3.0090    -0.4180     1.3000 h4         1 GI3       0.238000
     25 H5          -0.8500    -1.3420     2.8690 h1         1 GI3       0.105700
     26 HC           1.6990    -2.7130     2.7500 ho         1 GI3       0.416000
     27 H6C1        -1.6650     0.9470     3.2950 h1         1 GI3       0.052200
     28 H6C2        -0.0590     1.5860     2.9060 h1         1 GI3       0.052200
     29 H6          -0.5460     1.1110     5.2070 ho         1 GI3       0.425000
@<TRIPOS>BOND
     1     1     2 1
     2     1     8 2
     3     1    13 1
     4     2     3 1
     5     2     4 1
     6     2    18 1
     7     3    20 1
     8     4     6 1
     9     4     7 1
    10     4    21 1
    11     5     8 1
    12     5    14 2
    13     5    24 1
    14     6    22 1
    15     7     9 1
    16     7    10 1
    17     7    23 1
    18     8    10 1
    19     9    26 1
    20    10    11 1
    21    10    25 1
    22    11    12 1
    23    11    27 1
    24    11    28 1
    25    12    29 1
    26    13    14 1
    27    13    19 1
    28    14    15 1
    29    15    16 1
    30    15    17 1
@<TRIPOS>SUBSTRUCTURE
     1 GI3         1 TEMP              0 ****  ****    0 ROOT
