@<TRIPOS>MOLECULE
molecule
   32    33     1     0     0
SMALL
bcc


@<TRIPOS>ATOM
      1 C1           0.0000     0.0000     0.0000 c3         1 GI4      -0.155100
      2 C1B          3.6460     0.0000     0.4510 cc         1 GI4      -0.031900
      3 C2B          5.0570     0.0000     0.0000 c3         1 GI4       0.207400
      4 C3B          5.9720    -0.4590     1.1350 c3         1 GI4       0.115100
      5 C4B          5.5840     0.1830     2.4770 c3         1 GI4       0.130100
      6 C5B          4.1380    -0.1660     2.9030 c3         1 GI4       0.052000
      7 C6B          3.7160     0.7080     4.0870 c3         1 GI4       0.135400
      8 O2B          5.1550    -0.8900    -1.0990 oh         1 GI4      -0.588800
      9 O3B          7.3000    -0.0590     0.7900 oh         1 GI4      -0.595800
     10 O4B          6.4650    -0.2980     3.4940 oh         1 GI4      -0.595800
     11 N1B          3.2280    -0.0140     1.7780 na         1 GI4      -0.006100
     12 O6B          3.7940     2.0650     3.6910 oh         1 GI4      -0.607800
     13 N2B          2.4990     0.0410    -0.3160 na         1 GI4      -0.096100
     14 C7B          1.3870     0.0060     0.5130 cc         1 GI4       0.026400
     15 C8B          1.8340    -0.0390     1.7850 cd         1 GI4      -0.173300
     16 C2          -0.3540     1.2150    -0.8170 c          1 GI4       0.887600
     17 O1           0.3930     2.1520    -1.0550 o          1 GI4      -0.806300
     18 O5          -1.6330     1.1350    -1.2650 o          1 GI4      -0.806300
     19 H1C1        -0.6790    -0.0590     0.8420 hc         1 GI4       0.081700
     20 H1C2        -0.1360    -0.8810    -0.6160 hc         1 GI4       0.081700
     21 H2B          5.3380     0.9990    -0.3100 h1         1 GI4       0.097700
     22 HA           2.4730     0.0890    -1.3160 hn         1 GI4       0.362700
     23 H3B          5.9250    -1.5370     1.2230 h1         1 GI4       0.075700
     24 HB           5.5020    -0.4310    -1.8450 ho         1 GI4       0.432000
     25 H4B          5.6790     1.2590     2.3960 h1         1 GI4       0.086700
     26 HC           7.8360    -0.8240     0.6640 ho         1 GI4       0.427000
     27 H5B          4.1190    -1.2030     3.2160 h1         1 GI4       0.096700
     28 HD           7.1430     0.3390     3.6500 ho         1 GI4       0.431000
     29 H6B1         2.6980     0.4700     4.3730 h1         1 GI4       0.050200
     30 H6B2         4.3800     0.5340     4.9250 h1         1 GI4       0.050200
     31 H6B          3.5070     2.6160     4.4000 ho         1 GI4       0.426000
     32 H8B          1.2100    -0.0890     2.6700 h4         1 GI4       0.210000
@<TRIPOS>BOND
     1     1    14 1
     2     1    16 1
     3     1    19 1
     4     1    20 1
     5     2     3 1
     6     2    11 2
     7     2    13 1
     8     3     4 1
     9     3     8 1
    10     3    21 1
    11     4     5 1
    12     4     9 1
    13     4    23 1
    14     5     6 1
    15     5    10 1
    16     5    25 1
    17     6     7 1
    18     6    11 1
    19     6    27 1
    20     7    12 1
    21     7    29 1
    22     7    30 1
    23     8    24 1
    24     9    26 1
    25    10    28 1
    26    11    15 1
    27    12    31 1
    28    13    14 1
    29    13    22 1
    30    14    15 2
    31    15    32 1
    32    16    17 1
    33    16    18 1
@<TRIPOS>SUBSTRUCTURE
     1 GI4         1 TEMP              0 ****  ****    0 ROOT
