@<TRIPOS>MOLECULE
GI4
   32    33     1     0     0
SMALL
bcc


@<TRIPOS>ATOM
      1 C1         -0.0120   -0.0400    0.0260 c3        1 GI4     -0.190100
      2 C1B         3.6070    0.1130    0.5520 cc        1 GI4     -0.055900
      3 C2B         5.0440    0.2590    0.1260 c3        1 GI4      0.181400
      4 C3B         5.9360   -0.4180    1.1880 c3        1 GI4      0.109100
      5 C4B         5.5960    0.1230    2.5880 c3        1 GI4      0.139100
      6 C5B         4.1210   -0.1520    2.9930 c3        1 GI4      0.042000
      7 C6B         3.7540    0.7950    4.1560 c3        1 GI4      0.121400
      8 O2B         5.3010   -0.4090   -1.0890 oh        1 GI4     -0.579800
      9 O3B         7.2920   -0.0870    0.9640 oh        1 GI4     -0.595800
     10 O4B         6.3680   -0.5510    3.5660 oh        1 GI4     -0.595800
     11 N1B         3.2120   -0.0640    1.8680 na        1 GI4     -0.016100
     12 O6B         3.8940    2.1270    3.7000 oh        1 GI4     -0.602800
     13 N2B         2.4900    0.1100   -0.2350 na        1 GI4     -0.112100
     14 C7B         1.3520   -0.0350    0.5770 cc        1 GI4      0.013400
     15 C8B         1.8130   -0.1510    1.9040 cd        1 GI4     -0.186300
     16 C2         -0.1540    0.7900   -1.2830 c         1 GI4      0.925600
     17 O1          0.8060    0.7610   -2.1210 o         1 GI4     -0.796300
     18 O5         -1.2210    1.4170   -1.4390 o         1 GI4     -0.796300
     19 H1C1       -0.3100   -1.0920   -0.2260 hc        1 GI4      0.083200
     20 H1C2       -0.7260    0.3590    0.7910 hc        1 GI4      0.083200
     21 H2B         5.2880    1.3570    0.0470 h1        1 GI4      0.097700
     22 HA          2.3750    0.3070   -1.2430 hn        1 GI4      0.406700
     23 H3B         5.7980   -1.5340    1.1470 h1        1 GI4      0.079700
     24 HB          4.9270    0.1200   -1.8080 ho        1 GI4      0.434000
     25 H4B         5.8040    1.2300    2.6250 h1        1 GI4      0.092700
     26 HC          7.5320   -0.4600    0.1030 ho        1 GI4      0.436000
     27 H5B         4.0560   -1.2110    3.3940 h1        1 GI4      0.103700
     28 HD          7.2970   -0.4170    3.3240 ho        1 GI4      0.439000
     29 H6B1        2.7040    0.6050    4.5030 h1        1 GI4      0.054700
     30 H6B2        4.4790    0.5890    4.9920 h1        1 GI4      0.054700
     31 H6B         3.6120    2.7020    4.4230 ho        1 GI4      0.423000
     32 H8B         1.2560   -0.2720    2.8330 h4        1 GI4      0.206000
@<TRIPOS>BOND
     1    1   14 1   
     2    1   16 1   
     3    1   19 1   
     4    1   20 1   
     5    2    3 1   
     6    2   11 2   
     7    2   13 1   
     8    3    4 1   
     9    3    8 1   
    10    3   21 1   
    11    4    5 1   
    12    4    9 1   
    13    4   23 1   
    14    5    6 1   
    15    5   10 1   
    16    5   25 1   
    17    6    7 1   
    18    6   11 1   
    19    6   27 1   
    20    7   12 1   
    21    7   29 1   
    22    7   30 1   
    23    8   24 1   
    24    9   26 1   
    25   10   28 1   
    26   11   15 1   
    27   12   31 1   
    28   13   14 1   
    29   13   22 1   
    30   14   15 2   
    31   15   32 1   
    32   16   17 1   
    33   16   18 1   
@<TRIPOS>SUBSTRUCTURE
     1 GI4         1 TEMP              0 ****  ****    0 ROOT
