@<TRIPOS>MOLECULE
molecule
   40    42     1     0     0
SMALL
bcc


@<TRIPOS>ATOM
      1 F1           0.0000     0.0000     0.0000 f          1 GIA      -0.156900
      2 C1           1.3510     0.0000     0.0000 ca         1 GIA       0.122900
      3 C2           2.0430     0.0000     1.1990 ca         1 GIA      -0.189000
      4 C3           3.4250     0.0010     1.1990 ca         1 GIA      -0.109000
      5 C4           4.1170     0.0010     0.0010 ca         1 GIA      -0.138000
      6 C5           3.4260     0.0000    -1.1960 ca         1 GIA      -0.033300
      7 C6           2.0440    -0.0060    -1.1980 ca         1 GIA      -0.170000
      8 C7           4.1810    -0.0000    -2.5010 c3         1 GIA      -0.040100
      9 C8           4.4370    -1.4420    -2.9420 c3         1 GIA       0.011700
     10 C9           5.2960    -1.4440    -4.1800 c          1 GIA       0.884600
     11 O10          6.5200    -0.8930    -4.1480 o          1 GIA      -0.833800
     12 O11          4.8840    -1.9420    -5.2010 o          1 GIA      -0.833800
     13 N12          3.1590    -2.0970    -3.2340 ns         1 GIA      -0.542900
     14 C13          3.0550    -3.4390    -3.1480 c          1 GIA       0.672700
     15 O14          4.0210    -4.1040    -2.8280 o          1 GIA      -0.614100
     16 C15          1.7670    -4.1000    -3.4420 ca         1 GIA      -0.117600
     17 C16          1.6650    -5.4780    -3.3510 ca         1 GIA      -0.064000
     18 C17          0.4390    -6.0990    -3.6320 ca         1 GIA      -0.047000
     19 C18         -0.6770    -5.3060    -4.0030 ca         1 GIA      -0.027000
     20 C19         -0.5420    -3.9090    -4.0850 ca         1 GIA      -0.138000
     21 C20          0.6510    -3.3240    -3.8050 ca         1 GIA      -0.095000
     22 C21          0.2960    -7.4970    -3.5510 ca         1 GIA      -0.103000
     23 C22         -0.9080    -8.0670    -3.8300 ca         1 GIA      -0.144000
     24 C23         -2.0040    -7.2880    -4.1960 ca         1 GIA      -0.133000
     25 C24         -1.9030    -5.9330    -4.2830 ca         1 GIA      -0.121000
     26 H2           1.5020    -0.0000     2.1370 ha         1 GIA       0.129000
     27 H3           3.9670     0.0010     2.1370 ha         1 GIA       0.124000
     28 H4           5.2000     0.0040     0.0010 ha         1 GIA       0.144000
     29 H6           1.5040    -0.0060    -2.1370 ha         1 GIA       0.137000
     30 H7           3.5970     0.5100    -3.2570 hc         1 GIA       0.067200
     31 H7A          5.1280     0.5110    -2.3710 hc         1 GIA       0.067200
     32 H8           4.9440    -1.9770    -2.1490 h1         1 GIA       0.079700
     33 HN12         2.3790    -1.5550    -3.5490 hn         1 GIA       0.297500
     34 H16          2.5540    -6.0780    -3.1990 ha         1 GIA       0.162000
     35 H19         -1.3920    -3.2980    -4.3640 ha         1 GIA       0.125000
     36 H20          0.7450    -2.2460    -3.8630 ha         1 GIA       0.131000
     37 H21          1.1390    -8.1150    -3.2690 ha         1 GIA       0.133000
     38 H22         -1.0150    -9.1430    -3.7680 ha         1 GIA       0.119000
     39 H23         -2.9510    -7.7670    -4.4120 ha         1 GIA       0.117000
     40 H24         -2.7640    -5.3410    -4.5680 ha         1 GIA       0.125000
@<TRIPOS>BOND
     1     2     1 1
     2     3     2 ar
     3     2     7 ar
     4     4     3 ar
     5     3    26 1
     6     4     5 ar
     7     4    27 1
     8     5     6 ar
     9     5    28 1
    10     6     7 ar
    11     6     8 1
    12     7    29 1
    13     9     8 1
    14     8    30 1
    15     8    31 1
    16    13     9 1
    17     9    10 1
    18     9    32 1
    19    12    10 1
    20    10    11 1
    21    14    13 1
    22    13    33 1
    23    16    14 1
    24    14    15 2
    25    21    16 ar
    26    17    16 ar
    27    18    17 ar
    28    17    34 1
    29    22    18 ar
    30    19    18 ar
    31    25    19 ar
    32    19    20 ar
    33    20    21 ar
    34    20    35 1
    35    21    36 1
    36    23    22 ar
    37    22    37 1
    38    24    23 ar
    39    23    38 1
    40    24    25 ar
    41    24    39 1
    42    25    40 1
@<TRIPOS>SUBSTRUCTURE
     1 GIA         1 TEMP              0 ****  ****    0 ROOT
