@<TRIPOS>MOLECULE
GIF
   23    23     1     0     0
SMALL
bcc


@<TRIPOS>ATOM
      1 C            0.0000     0.0000     0.0000 c3         1 GIF       0.123800
      2 N            1.4680     0.0000     0.0000 n7         1 GIF      -0.582200
      3 O            3.5070     1.3300     3.5040 oh         1 GIF      -0.593800
      4 C1          -0.5120     1.2710     0.6820 c3         1 GIF       0.172100
      5 O1          -0.4860     0.2010     2.8510 oh         1 GIF      -0.579800
      6 C2           0.0170     1.3210     2.1180 c3         1 GIF       0.184100
      7 O2          -1.9410     1.2600     0.6990 oh         1 GIF      -0.582800
      8 C3           1.5460     1.2710     2.0930 c3         1 GIF      -0.067700
      9 C4           1.9980     0.0000     1.3700 c3         1 GIF       0.147800
     10 C5           2.0800     1.2600     3.5260 c3         1 GIF       0.227400
     11 H           -0.3600    -0.8680     0.5400 h1         1 GIF       0.019700
     12 HA          -0.3590    -0.0290    -1.0220 h1         1 GIF       0.019700
     13 HN           1.8020    -0.8080    -0.4870 hn         1 GIF       0.254800
     14 HO           3.8250     1.5490     4.3640 ho         1 GIF       0.389000
     15 H1          -0.1590     2.1380     0.1380 h1         1 GIF       0.012700
     16 HO1         -1.1530     0.4920     3.4510 ho         1 GIF       0.393000
     17 H2          -0.3060     2.2420     2.5880 h1         1 GIF       0.000700
     18 HO2         -2.2670     1.9120     0.1000 ho         1 GIF       0.388000
     19 H3           1.9260     2.1380     1.5670 hc         1 GIF       0.048700
     20 H4           1.6250    -0.8680     1.9000 h1         1 GIF       0.021700
     21 H4A          3.0810    -0.0290     1.3360 h1         1 GIF       0.021700
     22 H5           1.6850     2.1120     4.0650 h1         1 GIF      -0.008800
     23 H5A          1.7720     0.3460     4.0200 h1         1 GIF      -0.008800
@<TRIPOS>BOND
     1     1     2 1   
     2     1     4 1   
     3     1    11 1   
     4     1    12 1   
     5     2     9 1   
     6     2    13 1   
     7     3    10 1   
     8     3    14 1   
     9     4     6 1   
    10     4     7 1   
    11     4    15 1   
    12     5     6 1   
    13     5    16 1   
    14     6     8 1   
    15     6    17 1   
    16     7    18 1   
    17     8     9 1   
    18     8    10 1   
    19     8    19 1   
    20     9    20 1   
    21     9    21 1   
    22    10    22 1   
    23    10    23 1   
@<TRIPOS>SUBSTRUCTURE
     1 GIF         1 TEMP              0 ****  ****    0 ROOT
