@<TRIPOS>MOLECULE
molecule
   53    56     1     0     0
SMALL
bcc


@<TRIPOS>ATOM
      1 C5           0.0000     0.0000     0.0000 ca         1 GIG      -0.171300
      2 C6           1.3950     0.0000     0.0000 ca         1 GIG      -0.090000
      3 C7           2.0730     0.0000     1.2080 ca         1 GIG       0.052600
      4 C8           1.3950     0.0000     2.4150 ca         1 GIG       0.109900
      5 C10         -0.6970    -0.0000     1.2080 ca         1 GIG      -0.086000
      6 N12          3.4880     0.0010     1.2050 ns         1 GIG      -0.502100
      7 C13          4.3500     0.0040     0.0960 c          1 GIG       0.815100
      8 C17          8.1100     0.0090     0.3850 ca         1 GIG      -0.155500
      9 C20          7.9400     0.0140    -2.3990 ca         1 GIG      -0.120000
     10 C21          6.7760     0.0100    -1.6300 ca         1 GIG      -0.155500
     11 C24          9.9500     2.1970    -3.4240 ca         1 GIG      -0.126000
     12 C36          9.9060     8.1610    -9.3080 c3         1 GIG       0.144700
     13 O35          9.6830     7.6330    -7.9960 os         1 GIG      -0.422900
     14 C33         10.0120     6.3160    -7.8140 c          1 GIG       0.772100
     15 O34         10.4720     5.6050    -8.6990 o          1 GIG      -0.564000
     16 C27          9.9270     4.7140    -5.8810 cc         1 GIG       0.516400
     17 N28         10.4340     3.6580    -6.5880 na         1 GIG      -0.282300
     18 C29         10.5030     2.5820    -5.7410 ca         1 GIG      -0.091200
     19 C30         10.9360     1.2690    -5.9250 ca         1 GIG      -0.108000
     20 C31         10.8630     0.4210    -4.8160 ca         1 GIG      -0.129000
     21 C23         10.3790     0.8750    -3.5870 ca         1 GIG       0.096100
     22 C19          9.1690     0.0160    -1.7640 ca         1 GIG       0.085100
     23 C16          6.8620     0.0080    -0.2370 ca         1 GIG       0.070600
     24 N15          5.6980     0.0060     0.5320 ns         1 GIG      -0.495100
     25 O14          3.9960     0.0050    -1.0780 o          1 GIG      -0.588100
     26 C9           0.0010    -0.0000     2.4160 ca         1 GIG      -0.146000
     27 F11          2.0550     0.0010     3.5820 f          1 GIG      -0.134900
     28 C2          -0.7460    -0.0000    -1.2920 c3         1 GIG       0.705200
     29 F3          -2.1040    -0.0010    -1.1390 f          1 GIG      -0.232300
     30 F4          -0.4760     1.0830    -2.0780 f          1 GIG      -0.232300
     31 F1          -0.4650    -1.0920    -2.0610 f          1 GIG      -0.232300
     32 C18          9.2730     0.0130    -0.3850 ca         1 GIG      -0.120000
     33 C25         10.0160     3.0640    -4.5290 ca         1 GIG       0.109400
     34 N26          9.6630     4.3890    -4.6360 nd         1 GIG      -0.618100
     35 H6           1.9420     0.0000    -0.9350 ha         1 GIG       0.198000
     36 H10         -1.7800    -0.0000     1.2080 ha         1 GIG       0.159000
     37 HN12         3.9290     0.0010     2.1030 hn         1 GIG       0.322500
     38 H17          8.1760     0.0060     1.4660 ha         1 GIG       0.154000
     39 H20          7.8820     0.0160    -3.4810 ha         1 GIG       0.152500
     40 H21          5.8070     0.0090    -2.1130 ha         1 GIG       0.154000
     41 H24          9.5750     2.5450    -2.4690 ha         1 GIG       0.158000
     42 H361         9.3180     7.6020   -10.0270 h1         1 GIG       0.055033
     43 H362         9.6110     9.2030    -9.3330 h1         1 GIG       0.055033
     44 H363        10.9560     8.0770    -9.5580 h1         1 GIG       0.055033
     45 HN32         9.3690     6.6480    -5.9000 hn         1 GIG       0.357500
     46 HN28        10.7700     3.6890    -7.5300 hn         1 GIG       0.327700
     47 H30         11.3100     0.9230    -6.8810 ha         1 GIG       0.144000
     48 H31         11.1890    -0.6080    -4.9110 ha         1 GIG       0.147000
     49 HN15         5.8330     0.0050     1.5240 hn         1 GIG       0.310500
     50 H9          -0.5410    -0.0000     3.3540 ha         1 GIG       0.158000
     51 H18         10.2460     0.0140     0.0920 ha         1 GIG       0.152500
     52 O22         10.3230     0.0170    -2.5270 os         1 GIG      -0.256200
     53 N32          9.7460     5.9300    -6.4860 ns         1 GIG      -0.472400
@<TRIPOS>BOND
     1     1     2 ar
     2     1     5 ar
     3     1    28 1
     4     2     3 ar
     5     2    35 1
     6     3     6 1
     7     3     4 ar
     8     4    27 1
     9     4    26 ar
    10     5    26 ar
    11     5    36 1
    12     6     7 1
    13     6    37 1
    14     7    24 1
    15     7    25 2
    16     8    32 ar
    17     8    23 ar
    18     8    38 1
    19     9    22 ar
    20     9    10 ar
    21     9    39 1
    22    10    23 ar
    23    10    40 1
    24    11    21 ar
    25    11    33 ar
    26    11    41 1
    27    12    13 1
    28    12    42 1
    29    12    43 1
    30    12    44 1
    31    13    14 1
    32    14    53 1
    33    14    15 2
    34    53    16 1
    35    53    45 1
    36    16    17 1
    37    16    34 2
    38    17    18 1
    39    17    46 1
    40    18    19 ar
    41    18    33 ar
    42    19    20 ar
    43    19    47 1
    44    20    21 ar
    45    20    48 1
    46    21    52 1
    47    52    22 1
    48    22    32 ar
    49    23    24 1
    50    24    49 1
    51    26    50 1
    52    28    31 1
    53    28    29 1
    54    28    30 1
    55    32    51 1
    56    33    34 1
@<TRIPOS>SUBSTRUCTURE
     1 GIG         1 TEMP              0 ****  ****    0 ROOT
