@<TRIPOS>MOLECULE
GIL
   77    79     1     0     0
SMALL
bcc


@<TRIPOS>ATOM
      1 C1           0.0000     0.0000     0.0000 ca         1 GIL      -0.190900
      2 C2           1.3950     0.0000     0.0000 ca         1 GIL      -0.101000
      3 C3           2.0930     0.0000     1.2080 ca         1 GIL      -0.054000
      4 C4           1.3960     0.0010     2.4160 ca         1 GIL      -0.058000
      5 C5           0.0100     0.0010     2.4000 ca         1 GIL       0.156100
      6 C6          -0.6970     0.0010     1.2090 ca         1 GIL      -0.049000
      7 C7          -0.7280     0.0000    -1.2580 ce         1 GIL       0.202800
      8 N1          -0.1290    -0.0010    -2.5130 nz         1 GIL       0.184400
      9 N2          -2.0440     0.0010    -1.2100 n2         1 GIL      -0.483100
     10 C11         -0.9930     1.2210     4.1400 ca         1 GIL       0.604600
     11 C12         -1.6850     1.2650     5.3390 ca         1 GIL      -0.075400
     12 N3          -0.5970     2.3180     3.4540 nb         1 GIL      -0.697000
     13 C13         -1.9920     2.5130     5.8680 ca         1 GIL       0.105600
     14 O1          -0.6780     0.0030     3.5960 os         1 GIL      -0.354400
     15 C14         -1.6030     3.6640     5.1920 ca         1 GIL      -0.038400
     16 C15         -0.9180     3.5020     4.0060 ca         1 GIL       0.656600
     17 N4          -2.6960     2.6110     7.0860 nh         1 GIL      -0.432000
     18 O2          -0.5190     4.6310     3.3120 os         1 GIL      -0.304400
     19 F1          -2.0470     0.1380     5.9660 f          1 GIL      -0.105900
     20 F2          -1.8840     4.8810     5.6760 f          1 GIL      -0.090900
     21 C21          0.1550     4.4500     2.1430 ca         1 GIL       0.151100
     22 C22         -0.5260     4.3530     0.9300 ca         1 GIL      -0.095600
     23 C23          0.1840     4.1670    -0.2570 ca         1 GIL      -0.053000
     24 C24          1.5600     4.0830    -0.2030 ca         1 GIL      -0.221600
     25 C25          2.2580     4.1760     0.9830 ca         1 GIL      -0.051000
     26 C26          1.5470     4.3610     2.1700 ca         1 GIL      -0.145000
     27 C29         -1.9790     4.4450     0.8800 c          1 GIL       0.966200
     28 O3          -2.5090     3.7290    -0.1480 o          1 GIL      -0.877300
     29 O4          -2.6810     5.0920     1.6620 o          1 GIL      -0.877300
     30 C8           2.3170     3.8850    -1.4660 c          1 GIL       0.610700
     31 C10         -4.0210     2.0400     7.2170 c3         1 GIL       0.171000
     32 C16         -2.0980     3.2750     8.2280 c3         1 GIL       0.171000
     33 C17         -3.8980     0.6080     7.7200 c3         1 GIL      -0.041350
     34 C18         -4.7210     2.1040     5.8670 c3         1 GIL      -0.041350
     35 C19         -1.8160     4.7270     7.8690 c3         1 GIL      -0.041350
     36 C20         -0.8280     2.5340     8.6200 c3         1 GIL      -0.041350
     37 O5           3.4010     3.3090    -1.4320 o          1 GIL      -0.667100
     38 N5           1.6940     4.3640    -2.5840 ns         1 GIL      -0.225900
     39 C9           2.3080     4.2220    -3.9240 c3         1 GIL       0.051000
     40 C27          1.8840     2.9160    -4.6080 c3         1 GIL      -0.072700
     41 C28          0.3670     2.8180    -4.7830 c3         1 GIL       0.006900
     42 C30          2.5950     2.7130    -5.9460 c3         1 GIL       0.006900
     43 H2           1.9370    -0.0010    -0.9380 ha         1 GIL       0.087000
     44 H3           3.1760    -0.0000     1.2070 ha         1 GIL       0.120000
     45 H4           1.9320     0.0010     3.3570 ha         1 GIL       0.127000
     46 H6          -1.7800     0.0010     1.2170 ha         1 GIL       0.130000
     47 H1N1         0.1970    -0.9230    -2.7260 hn         1 GIL       0.218467
     48 H1N2        -0.7970     0.2840    -3.2020 hn         1 GIL       0.218467
     49 H23         -0.3360     4.0900    -1.2040 ha         1 GIL       0.124000
     50 H25          3.3390     4.1060     0.9940 ha         1 GIL       0.117000
     51 H26          2.0770     4.4360     3.1120 ha         1 GIL       0.108000
     52 H10         -4.5870     2.6200     7.9360 h1         1 GIL       0.031200
     53 H16         -2.7940     3.2450     9.0580 h1         1 GIL       0.031200
     54 H171        -4.1510    -0.0780     6.9210 hc         1 GIL       0.017950
     55 H172        -2.8810     0.4260     8.0440 hc         1 GIL       0.017950
     56 H173        -4.5750     0.4590     8.5530 hc         1 GIL       0.017950
     57 H181        -5.7630     1.8330     5.9870 hc         1 GIL       0.017950
     58 H182        -4.2450     1.4140     5.1810 hc         1 GIL       0.017950
     59 H183        -4.6530     3.1100     5.4720 hc         1 GIL       0.017950
     60 H191        -0.9270     4.7800     7.2520 hc         1 GIL       0.017950
     61 H192        -1.6600     5.2990     8.7760 hc         1 GIL       0.017950
     62 H193        -2.6580     5.1350     7.3240 hc         1 GIL       0.017950
     63 H201        -0.0970     2.6260     7.8250 hc         1 GIL       0.017950
     64 H202        -0.4270     2.9620     9.5310 hc         1 GIL       0.017950
     65 H203        -1.0550     1.4870     8.7820 hc         1 GIL       0.017950
     66 H5           0.8100     4.8250    -2.4950 hn         1 GIL       0.207500
     67 H9C1         3.3860     4.2320    -3.8210 h1         1 GIL       0.033700
     68 H9C2         2.0040     5.0590    -4.5420 h1         1 GIL       0.033700
     69 H27          2.1840     2.1030    -3.9580 hc         1 GIL      -0.001300
     70 H281         0.1210     1.8930    -5.2910 hc         1 GIL       0.004533
     71 H282         0.0170     3.6570    -5.3710 hc         1 GIL       0.004533
     72 H283        -0.1110     2.8340    -3.8110 hc         1 GIL       0.004533
     73 H301         2.3070     1.7570    -6.3660 hc         1 GIL       0.004533
     74 H302         2.3130     3.5060    -6.6280 hc         1 GIL       0.004533
     75 H303         3.6670     2.7320    -5.7920 hc         1 GIL       0.004533
     76 HN1         -2.5150     0.0020    -0.3270 hn         1 GIL       0.392400
     77 H13          0.6440     0.6350    -2.5140 hn         1 GIL       0.218467
@<TRIPOS>BOND
     1     1     2 ar  
     2     1     6 ar  
     3     1     7 1   
     4     2     3 ar  
     5     2    43 1   
     6     3     4 ar  
     7     3    44 1   
     8     4     5 ar  
     9     4    45 1   
    10     5     6 ar  
    11     5    14 1   
    12     6    46 1   
    13     7     8 1   
    14     7     9 2   
    15     8    47 1   
    16     8    48 1   
    17     8    77 1   
    18     9    76 1   
    19    10    11 ar  
    20    10    12 ar  
    21    10    14 1   
    22    11    13 ar  
    23    11    19 1   
    24    12    16 ar  
    25    13    15 ar  
    26    13    17 1   
    27    15    16 ar  
    28    15    20 1   
    29    16    18 1   
    30    17    31 1   
    31    17    32 1   
    32    18    21 1   
    33    21    22 ar  
    34    21    26 ar  
    35    22    23 ar  
    36    22    27 1   
    37    23    24 ar  
    38    23    49 1   
    39    24    25 ar  
    40    24    30 1   
    41    25    26 ar  
    42    25    50 1   
    43    26    51 1   
    44    27    28 1   
    45    27    29 1   
    46    30    37 2   
    47    30    38 1   
    48    31    33 1   
    49    31    34 1   
    50    31    52 1   
    51    32    35 1   
    52    32    36 1   
    53    32    53 1   
    54    33    54 1   
    55    33    55 1   
    56    33    56 1   
    57    34    57 1   
    58    34    58 1   
    59    34    59 1   
    60    35    60 1   
    61    35    61 1   
    62    35    62 1   
    63    36    63 1   
    64    36    64 1   
    65    36    65 1   
    66    38    39 1   
    67    38    66 1   
    68    39    40 1   
    69    39    67 1   
    70    39    68 1   
    71    40    41 1   
    72    40    42 1   
    73    40    69 1   
    74    41    70 1   
    75    41    71 1   
    76    41    72 1   
    77    42    73 1   
    78    42    74 1   
    79    42    75 1   
@<TRIPOS>SUBSTRUCTURE
     1 GIL         1 TEMP              0 ****  ****    0 ROOT
