@<TRIPOS>MOLECULE
molecule
   77    79     1     0     0
SMALL
bcc


@<TRIPOS>ATOM
      1 C1           0.0000     0.0000     0.0000 ca         1 GIL      -0.169900
      2 C2           1.3950     0.0000     0.0000 ca         1 GIL      -0.125000
      3 C3           2.0930     0.0000     1.2080 ca         1 GIL      -0.103000
      4 C4           1.3960     0.0010     2.4160 ca         1 GIL      -0.074000
      5 C5           0.0100     0.0010     2.4000 ca         1 GIL       0.129100
      6 C6          -0.6970     0.0010     1.2090 ca         1 GIL      -0.021000
      7 C7          -0.7280     0.0000    -1.2580 ce         1 GIL       0.538800
      8 N1          -0.1290    -0.0010    -2.5130 nz         1 GIL      -0.800600
      9 N2          -2.0440     0.0010    -1.2100 n2         1 GIL      -0.655100
     10 C11         -0.9930     1.2210     4.1400 ca         1 GIL       0.608600
     11 C12         -1.6850     1.2650     5.3390 ca         1 GIL      -0.035400
     12 N3          -0.5970     2.3180     3.4540 nb         1 GIL      -0.755000
     13 C13         -1.9920     2.5130     5.8680 ca         1 GIL       0.195600
     14 O1          -0.6780     0.0030     3.5960 os         1 GIL      -0.364400
     15 C14         -1.6030     3.6640     5.1920 ca         1 GIL      -0.008400
     16 C15         -0.9180     3.5020     4.0060 ca         1 GIL       0.659600
     17 N4          -2.6960     2.6110     7.0860 nh         1 GIL      -0.760000
     18 O2          -0.5190     4.6310     3.3120 os         1 GIL      -0.321400
     19 F1          -2.0470     0.1380     5.9660 f          1 GIL      -0.116900
     20 F2          -1.8840     4.8810     5.6760 f          1 GIL      -0.093900
     21 C21          0.1550     4.4500     2.1430 ca         1 GIL       0.142100
     22 C22         -0.5260     4.3530     0.9300 ca         1 GIL      -0.082600
     23 C23          0.1840     4.1670    -0.2570 ca         1 GIL      -0.082000
     24 C24          1.5600     4.0830    -0.2030 ca         1 GIL      -0.194600
     25 C25          2.2580     4.1760     0.9830 ca         1 GIL      -0.089000
     26 C26          1.5470     4.3610     2.1700 ca         1 GIL      -0.155000
     27 C29         -1.9790     4.4450     0.8800 c          1 GIL       0.874200
     28 O3          -2.5090     3.7290    -0.1480 o          1 GIL      -0.825300
     29 O4          -2.6810     5.0920     1.6620 o          1 GIL      -0.825300
     30 C8           2.3170     3.8850    -1.4660 c          1 GIL       0.673700
     31 C10         -4.0210     2.0400     7.2170 c3         1 GIL       0.252500
     32 C16         -2.0980     3.2750     8.2280 c3         1 GIL       0.252500
     33 C17         -3.8980     0.6080     7.7200 c3         1 GIL      -0.117100
     34 C18         -4.7210     2.1040     5.8670 c3         1 GIL      -0.117100
     35 C19         -1.8160     4.7270     7.8690 c3         1 GIL      -0.117100
     36 C20         -0.8280     2.5340     8.6200 c3         1 GIL      -0.117100
     37 O5           3.4010     3.3090    -1.4320 o          1 GIL      -0.629100
     38 N5           1.6940     4.3640    -2.5840 ns         1 GIL      -0.596900
     39 C9           2.3080     4.2220    -3.9240 c3         1 GIL       0.110000
     40 C27          1.8840     2.9160    -4.6080 c3         1 GIL      -0.098700
     41 C28          0.3670     2.8180    -4.7830 c3         1 GIL      -0.092600
     42 C30          2.5950     2.7130    -5.9460 c3         1 GIL      -0.092600
     43 H2           1.9370    -0.0010    -0.9380 ha         1 GIL       0.107000
     44 H3           3.1760    -0.0000     1.2070 ha         1 GIL       0.154000
     45 H4           1.9320     0.0010     3.3570 ha         1 GIL       0.161000
     46 H6          -1.7800     0.0010     1.2170 ha         1 GIL       0.190000
     47 H1N1         0.1870    -0.9250    -2.7310 hn         1 GIL       0.460133
     48 H1N2        -0.7930     0.2960    -3.2000 hn         1 GIL       0.460133
     49 H23         -0.3360     4.0900    -1.2040 ha         1 GIL       0.145000
     50 H25          3.3390     4.1060     0.9940 ha         1 GIL       0.144000
     51 H26          2.0770     4.4360     3.1120 ha         1 GIL       0.135000
     52 H10         -4.5870     2.6200     7.9360 h1         1 GIL       0.054700
     53 H16         -2.7940     3.2450     9.0580 h1         1 GIL       0.054700
     54 H171        -4.5460     0.4700     8.5770 hc         1 GIL       0.045033
     55 H172        -4.1880    -0.0770     6.9330 hc         1 GIL       0.045033
     56 H173        -2.8720     0.4140     8.0080 hc         1 GIL       0.045033
     57 H181        -4.6730     3.1150     5.4830 hc         1 GIL       0.045033
     58 H182        -5.7570     1.8110     5.9830 hc         1 GIL       0.045033
     59 H183        -4.2310     1.4300     5.1740 hc         1 GIL       0.045033
     60 H191        -0.8980     4.7850     7.2950 hc         1 GIL       0.045033
     61 H192        -2.6350     5.1200     7.2800 hc         1 GIL       0.045033
     62 H193        -1.7110     5.3090     8.7760 hc         1 GIL       0.045033
     63 H201        -0.4380     2.9490     9.5410 hc         1 GIL       0.045033
     64 H202        -0.0900     2.6430     7.8340 hc         1 GIL       0.045033
     65 H203        -1.0510     1.4840     8.7620 hc         1 GIL       0.045033
     66 H5           0.8090     4.8240    -2.4950 hn         1 GIL       0.340500
     67 H9C1         2.0040     5.0590    -4.5420 h1         1 GIL       0.063700
     68 H9C2         3.3860     4.2320    -3.8210 h1         1 GIL       0.063700
     69 H27          2.1840     2.1030    -3.9580 hc         1 GIL       0.021700
     70 H281         0.0160     3.6580    -5.3700 hc         1 GIL       0.036367
     71 H282        -0.1110     2.8330    -3.8110 hc         1 GIL       0.036367
     72 H283         0.1220     1.8940    -5.2920 hc         1 GIL       0.036367
     73 H301         2.3490     1.7350    -6.3410 hc         1 GIL       0.036367
     74 H302         3.6660     2.7860    -5.8010 hc         1 GIL       0.036367
     75 H303         2.2730     3.4750    -6.6450 hc         1 GIL       0.036367
     76 HN1         -2.5760     0.0010    -2.0580 hn         1 GIL       0.421400
     77 H13          0.6510     0.6260    -2.5110 hn         1 GIL       0.460133
@<TRIPOS>BOND
     1     1     2 ar
     2     1     6 ar
     3     1     7 1
     4     2     3 ar
     5     2    43 1
     6     3     4 ar
     7     3    44 1
     8     4     5 ar
     9     4    45 1
    10     5     6 ar
    11     5    14 1
    12     6    46 1
    13     7     8 1
    14     7     9 2
    15     8    47 1
    16     8    48 1
    17    10    11 ar
    18    10    12 ar
    19    10    14 1
    20    11    13 ar
    21    11    19 1
    22    12    16 ar
    23    13    15 ar
    24    13    17 1
    25    15    16 ar
    26    15    20 1
    27    16    18 1
    28    17    31 1
    29    17    32 1
    30    18    21 1
    31    21    22 ar
    32    21    26 ar
    33    22    23 ar
    34    22    27 1
    35    23    24 ar
    36    23    49 1
    37    24    25 ar
    38    24    30 1
    39    25    26 ar
    40    25    50 1
    41    26    51 1
    42    27    28 1
    43    27    29 1
    44    30    37 2
    45    30    38 1
    46    31    33 1
    47    31    34 1
    48    31    52 1
    49    32    35 1
    50    32    36 1
    51    32    53 1
    52    33    54 1
    53    33    55 1
    54    33    56 1
    55    34    57 1
    56    34    58 1
    57    34    59 1
    58    35    60 1
    59    35    61 1
    60    35    62 1
    61    36    63 1
    62    36    64 1
    63    36    65 1
    64    38    39 1
    65    38    66 1
    66    39    40 1
    67    39    67 1
    68    39    68 1
    69    40    41 1
    70    40    42 1
    71    40    69 1
    72    41    70 1
    73    41    71 1
    74    41    72 1
    75    42    73 1
    76    42    74 1
    77    42    75 1
    78    76     9 1
    79    77     8 1
@<TRIPOS>SUBSTRUCTURE
     1 GIL         1 TEMP              0 ****  ****    0 ROOT
