@<TRIPOS>MOLECULE
molecule
   27    28     1     0     0
SMALL
bcc


@<TRIPOS>ATOM
      1 C1           0.0000     0.0000     0.0000 cc         1 GIM      -0.028900
      2 C2           1.5110     0.0000     0.0000 c3         1 GIM       0.192400
      3 N10         -0.7480     0.2920     1.0360 na         1 GIM       0.034900
      4 C3           1.9960     0.0000     1.4550 c3         1 GIM       0.123100
      5 C4           1.2340     1.0790     2.2310 c3         1 GIM       0.126100
      6 C5          -0.2360     0.6660     2.3600 c3         1 GIM       0.025000
      7 C6          -1.0500     1.8380     2.9100 c3         1 GIM       0.128400
      8 C7          -2.0930    -0.1710    -0.6100 cc         1 GIM      -0.131300
      9 C8          -2.0370     0.1960     0.6840 cd         1 GIM      -0.117300
     10 N1          -0.7990    -0.2950    -1.0430 na         1 GIM      -0.106100
     11 O3           3.3970     0.2810     1.4940 oh         1 GIM      -0.577800
     12 O2           1.9910    -1.1690    -0.6670 oh         1 GIM      -0.575800
     13 O4           1.8040     1.2230     3.5340 oh         1 GIM      -0.570800
     14 O6          -2.3980     1.4180     3.1350 oh         1 GIM      -0.624800
     15 H2           1.8740     0.8880    -0.5030 h1         1 GIM       0.095700
     16 H3           1.8030    -0.9690     1.8990 h1         1 GIM       0.082700
     17 H4           1.2980     2.0200     1.6980 h1         1 GIM       0.062700
     18 H5          -0.3150    -0.1820     3.0290 h1         1 GIM       0.129700
     19 H6C1        -1.0400     2.6520     2.1960 h1         1 GIM       0.064700
     20 H6C2        -0.6160     2.1730     3.8450 h1         1 GIM       0.064700
     21 H7          -2.9770    -0.5040    -1.1400 h4         1 GIM       0.232000
     22 H8          -2.8870     0.3790     1.3300 h4         1 GIM       0.251000
     23 H1          -0.5040    -0.5560    -1.9630 hn         1 GIM       0.360700
     24 HB           3.8580    -0.4670     1.8380 ho         1 GIM       0.441000
     25 HA           2.5150    -0.9150    -1.4090 ho         1 GIM       0.438000
     26 HC           2.2840     2.0330     3.5800 ho         1 GIM       0.439000
     27 H6          -2.7950     1.9720     3.7870 ho         1 GIM       0.441000
@<TRIPOS>BOND
     1     1     2 1
     2     1     3 2
     3     1    10 1
     4     2     4 1
     5     2    12 1
     6     2    15 1
     7     3     6 1
     8     3     9 1
     9     4     5 1
    10     4    11 1
    11     4    16 1
    12     5     6 1
    13     5    13 1
    14     5    17 1
    15     6     7 1
    16     6    18 1
    17     7    14 1
    18     7    19 1
    19     7    20 1
    20     8     9 2
    21     8    10 1
    22     8    21 1
    23     9    22 1
    24    10    23 1
    25    11    24 1
    26    12    25 1
    27    13    26 1
    28    14    27 1
@<TRIPOS>SUBSTRUCTURE
     1 GIM         1 TEMP              0 ****  ****    0 ROOT
