@<TRIPOS>MOLECULE
GIM
   27    28     1     0     0
SMALL
bcc


@<TRIPOS>ATOM
      1 C1         -0.0300   -0.0170   -0.0740 cc        1 GIM      0.004100
      2 C2          1.4750    0.0620   -0.0850 c3        1 GIM      0.213400
      3 N10        -0.8190    0.3510    1.0000 na        1 GIM     -0.014100
      4 C3          1.9740    0.0290    1.3740 c3        1 GIM      0.073100
      5 C4          1.2240    1.0810    2.2130 c3        1 GIM      0.105100
      6 C5         -0.2930    0.7670    2.2920 c3        1 GIM     -0.006000
      7 C6         -1.0310    1.9930    2.8800 c3        1 GIM      0.122400
      8 C7         -2.1860   -0.3040   -0.6710 cc        1 GIM     -0.123300
      9 C8         -2.1650    0.1880    0.6420 cd        1 GIM     -0.091300
     10 N1         -0.8560   -0.4230   -1.0960 na        1 GIM     -0.111100
     11 O3          3.3480    0.3600    1.3080 oh        1 GIM     -0.589800
     12 O2          1.9440   -1.0420   -0.8300 oh        1 GIM     -0.591800
     13 O4          1.6830    1.0190    3.5510 oh        1 GIM     -0.583800
     14 O6         -2.3710    1.6590    3.1540 oh        1 GIM     -0.599800
     15 H2          1.7890    1.0280   -0.5820 h1        1 GIM      0.106700
     16 H3          1.8290   -0.9960    1.8140 h1        1 GIM      0.088700
     17 H4          1.3900    2.1060    1.7780 h1        1 GIM      0.078700
     18 H5         -0.4420   -0.1080    3.0000 h1        1 GIM      0.116700
     19 H6C1       -1.0690    2.8400    2.1430 h1        1 GIM      0.087700
     20 H6C2       -0.4690    2.3100    3.7990 h1        1 GIM      0.087700
     21 H7         -3.0330   -0.5690   -1.3130 h4        1 GIM      0.235000
     22 H8         -2.9810    0.4450    1.3340 h4        1 GIM      0.254000
     23 H1         -0.5330   -0.7880   -1.9670 hn        1 GIM      0.367700
     24 HB          3.7650    0.0190    2.1110 ho        1 GIM      0.439000
     25 HA          2.9120   -1.0400   -0.7500 ho        1 GIM      0.463000
     26 HC          2.5000    1.5360    3.5950 ho        1 GIM      0.438000
     27 H6         -2.4300    1.3670    4.0740 ho        1 GIM      0.430000
@<TRIPOS>BOND
     1    1    2 1   
     2    1    3 2   
     3    1   10 1   
     4    2    4 1   
     5    2   12 1   
     6    2   15 1   
     7    3    6 1   
     8    3    9 1   
     9    4    5 1   
    10    4   11 1   
    11    4   16 1   
    12    5    6 1   
    13    5   13 1   
    14    5   17 1   
    15    6    7 1   
    16    6   18 1   
    17    7   14 1   
    18    7   19 1   
    19    7   20 1   
    20    8    9 2   
    21    8   10 1   
    22    8   21 1   
    23    9   22 1   
    24   10   23 1   
    25   11   24 1   
    26   12   25 1   
    27   13   26 1   
    28   14   27 1   
@<TRIPOS>SUBSTRUCTURE
     1 GIM         1 TEMP              0 ****  ****    0 ROOT
