@<TRIPOS>MOLECULE
GIN
   53    55     1     0     0
SMALL
bcc


@<TRIPOS>ATOM
      1 C12        -0.3840   -0.7530   -1.2410 c         1 GIN      0.697700
      2 C16        -2.4040   -1.7060   -0.1160 ca        1 GIN      0.060600
      3 C19        -5.1440   -2.3850    0.1780 ca        1 GIN     -0.044300
      4 C20        -4.7110   -1.5240   -0.8410 ca        1 GIN     -0.114000
      5 C21        -3.3760   -1.1810   -0.9970 ca        1 GIN     -0.123000
      6 C24        -6.5970   -2.6950    0.2800 c3        1 GIN     -0.049100
      7 C30        -7.0150   -3.7480   -0.7310 c3        1 GIN     -0.077400
      8 C31        -8.5040   -3.9730   -0.6970 c3        1 GIN     -0.094100
      9 C32         2.1580   -1.2720   -4.5330 c3        1 GIN      0.252000
     10 C33         1.8540    0.0400   -5.1880 cc        1 GIN     -0.257200
     11 C34         2.7710    0.5290   -6.1750 cc        1 GIN     -0.031000
     12 C35         2.5290    1.6960   -6.8240 cd        1 GIN     -0.255200
     13 C01         1.0820   -0.5450   -1.0580 ca        1 GIN     -0.227600
     14 C02         1.5470    0.0170    0.1360 ca        1 GIN     -0.071000
     15 C03         2.8980    0.2790    0.3180 ca        1 GIN     -0.174000
     16 C04         3.8000   -0.0290   -0.7040 ca        1 GIN     -0.071000
     17 C05         3.3620   -0.5910   -1.8920 ca        1 GIN     -0.178000
     18 C06         1.9870   -0.8710   -2.1040 ca        1 GIN      0.202600
     19 N11         1.5500   -1.5430   -3.2530 nh        1 GIN     -0.725600
     20 N13        -1.0380   -1.3930   -0.1990 n         1 GIN     -0.461100
     21 O14        -0.9750   -0.3710   -2.2740 o         1 GIN     -0.629100
     22 C17        -2.8320   -2.5760    0.9120 ca        1 GIN     -0.142000
     23 C18        -4.1810   -2.9050    1.0520 ca        1 GIN     -0.135300
     24 C23        -4.5670   -3.8480    2.1910 c3        1 GIN      0.688200
     25 F27        -3.5080   -4.3530    2.9090 f         1 GIN     -0.237633
     26 F28        -5.3670   -3.2810    3.1550 f         1 GIN     -0.237633
     27 F29        -5.2530   -4.9730    1.8000 f         1 GIN     -0.237633
     28 C36         1.3320    2.4860   -6.5320 c         1 GIN      0.679700
     29 N37         0.4600    1.9630   -5.5540 n         1 GIN     -0.433100
     30 C38         0.7240    0.7800   -4.9130 cd        1 GIN      0.028600
     31 O41         1.0310    3.5670   -7.0750 o         1 GIN     -0.640500
     32 H20        -5.4570   -1.1080   -1.5370 ha        1 GIN      0.145000
     33 H21        -3.0840   -0.4990   -1.8130 ha        1 GIN      0.176000
     34 H241       -7.1850   -1.7540    0.1040 hc        1 GIN      0.059200
     35 H242       -6.8520   -3.0540    1.3130 hc        1 GIN      0.059200
     36 H301       -6.4800   -4.7080   -0.5030 hc        1 GIN      0.047700
     37 H302       -6.7030   -3.4240   -1.7590 hc        1 GIN      0.047700
     38 H311       -8.7920   -4.7580   -1.4380 hc        1 GIN      0.035700
     39 H312       -8.8290   -4.3100    0.3170 hc        1 GIN      0.035700
     40 H313       -9.0540   -3.0340   -0.9470 hc        1 GIN      0.035700
     41 H321        3.2770   -1.3750   -4.4350 h1        1 GIN      0.063200
     42 H322        1.8050   -2.0960   -5.2240 h1        1 GIN      0.063200
     43 H34         3.6720   -0.0660   -6.3940 ha        1 GIN      0.137000
     44 H35         3.1990    2.1120   -7.5880 ha        1 GIN      0.163000
     45 H02         0.8330    0.2800    0.9330 ha        1 GIN      0.136000
     46 H03         3.2550    0.7290    1.2550 ha        1 GIN      0.141000
     47 H04         4.8730    0.1780   -0.5650 ha        1 GIN      0.138000
     48 H05         4.1000   -0.8240   -2.6750 ha        1 GIN      0.143000
     49 HN11        0.5510   -1.6080   -3.3200 hn        1 GIN      0.412800
     50 HN13       -0.4710   -1.7270    0.5510 hn        1 GIN      0.327500
     51 H17        -2.1020   -3.0070    1.6180 ha        1 GIN      0.151000
     52 HN37       -0.3610    2.4780   -5.3240 hn        1 GIN      0.336500
     53 H38        -0.0290    0.4670   -4.1590 h4        1 GIN      0.182000
@<TRIPOS>BOND
     1    1   13 1
     2    1   20 1
     3    1   21 2
     4    2    5 ar
     5    2   20 1
     6    2   22 ar
     7    3    4 ar
     8    3    6 1
     9    3   23 ar
    10    4    5 ar
    11    4   32 1
    12    5   33 1
    13    6    7 1
    14    6   34 1
    15    6   35 1
    16    7    8 1
    17    7   36 1
    18    7   37 1
    19    8   38 1
    20    8   39 1
    21    8   40 1
    22    9   10 1
    23    9   19 1
    24    9   41 1
    25    9   42 1
    26   10   11 1
    27   10   30 2
    28   11   12 2
    29   11   43 1
    30   12   28 1
    31   12   44 1
    32   13   14 ar
    33   13   18 ar
    34   14   15 ar
    35   14   45 1
    36   15   16 ar
    37   15   46 1
    38   16   17 ar
    39   16   47 1
    40   17   18 ar
    41   17   48 1
    42   18   19 1
    43   19   49 1
    44   20   50 1
    45   22   23 ar
    46   22   51 1
    47   23   24 1
    48   24   25 1
    49   24   26 1
    50   24   27 1
    51   28   29 1
    52   28   31 2
    53   29   30 1
    54   29   52 1
    55   30   53 1
@<TRIPOS>SUBSTRUCTURE
     1 GIN         1 TEMP              0 ****  ****    0 ROOT
