@<TRIPOS>MOLECULE
GIO
   21    22     1     0     0
SMALL
bcc


@<TRIPOS>ATOM
      1 OP           0.0000     0.0000     0.0000 o          1 GIO      -0.666500
      2 CP           1.2130     0.0000     0.0000 c          1 GIO       0.603500
      3 CAP          1.9700     0.0000     1.3040 c3         1 GIO      -0.048300
      4 CBP          1.1700     0.7820     2.3710 c3         1 GIO      -0.020400
      5 CGP          2.3050     1.2780     3.3070 c3         1 GIO      -0.052400
      6 CDP          3.4660     1.5610     2.3290 c3         1 GIO       0.063000
      7 NP           3.2110     0.7760     1.1040 n          1 GIO      -0.180800
      8 C            3.9120     0.7610    -0.0470 c          1 GIO       0.634500
      9 O            4.9610     1.3620    -0.1510 o          1 GIO      -0.662500
     10 CA           3.3500    -0.0360    -1.2040 c3         1 GIO      -0.027000
     11 N            1.8890    -0.0010    -1.1650 ns         1 GIO      -0.190900
     12 HAP          2.1860    -1.0090     1.6350 h1         1 GIO       0.051700
     13 HBP1         0.6450     1.6190     1.9240 hc         1 GIO       0.039200
     14 HBP2         0.4900     0.1270     2.9020 hc         1 GIO       0.039200
     15 HGP1         1.9900     2.2320     3.7120 hc         1 GIO       0.037700
     16 HGP2         2.6030     0.4350     3.9190 hc         1 GIO       0.037700
     17 HDP1         4.3570     1.1420     2.7810 h1         1 GIO       0.033700
     18 HDP2         3.3810     2.6040     2.0470 h1         1 GIO       0.033700
     19 HAC1         3.6860    -1.0630    -1.1280 h1         1 GIO       0.041200
     20 HAC2         3.6940     0.3940    -2.1360 h1         1 GIO       0.041200
     21 H            1.3790     0.0230    -2.0250 hn         1 GIO       0.190500
@<TRIPOS>BOND
     1     1     2 2   
     2     2     3 1   
     3     2    11 1   
     4     3     4 1   
     5     3     7 1   
     6     3    12 1   
     7     4     5 1   
     8     4    13 1   
     9     4    14 1   
    10     5     6 1   
    11     5    15 1   
    12     5    16 1   
    13     6     7 1   
    14     6    17 1   
    15     6    18 1   
    16     7     8 1   
    17     8     9 2   
    18     8    10 1   
    19    10    11 1   
    20    10    19 1   
    21    10    20 1   
    22    11    21 1   
@<TRIPOS>SUBSTRUCTURE
     1 GIO         1 TEMP              0 ****  ****    0 ROOT
