@<TRIPOS>MOLECULE
GIP
   55    55     1     0     0
SMALL
bcc


@<TRIPOS>ATOM
      1 C           5.0280   -0.8990    1.4420 c2        1 GIP      0.336000
      2 OT1         5.7780   -0.4400    2.3480 o         1 GIP     -0.530500
      3 OT2         4.7590   -2.1120    1.2700 o         1 GIP     -0.530500
      4 N           4.1040   -0.4880   -0.8320 n4        1 GIP     -0.055000
      5 CA          4.3490    0.1510    0.5000 c3        1 GIP     -0.182000
      6 CB          3.0530    0.6360    1.1590 c3        1 GIP     -0.160000
      7 CB2         5.2380   -0.0970    6.4130 c3        1 GIP     -0.330000
      8 SG2         4.4970   -1.6930    6.5260 ss        1 GIP      0.147000
      9 CG          3.3520    1.6210    2.2770 c3        1 GIP     -0.194000
     10 CD          2.8780    1.1350    3.6200 c2        1 GIP      0.264000
     11 OE          1.8100    1.3910    4.1560 o         1 GIP     -0.172000
     12 N2          3.8110    0.2350    4.3770 n4        1 GIP     -0.135000
     13 CA2         4.5000    0.9050    5.5220 c3        1 GIP     -0.082000
     14 C2          5.4640    2.0260    5.0550 c2        1 GIP      0.280000
     15 O2          5.2390    3.1830    5.4460 o         1 GIP     -0.308000
     16 N3          6.5400    1.6860    4.2720 n         1 GIP     -0.350000
     17 CA3         7.4230    2.6820    3.7400 c3        1 GIP     -0.069000
     18 C3          7.1990    3.0060    2.2730 c2        1 GIP      0.297000
     19 O31         8.1120    3.7820    1.6330 oh        1 GIP     -0.263000
     20 O32         6.2640    2.6470    1.5520 o         1 GIP     -0.357000
     21 NE2         6.6580   -2.6060    5.0180 n3        1 GIP     -0.043000
     22 OF2         7.0000   -1.5110    4.3270 oh        1 GIP     -0.262000
     23 CD2         5.2070   -2.7300    5.2100 c3        1 GIP      0.027000
     24 OZ1         4.4820   -2.3820    4.0520 oh        1 GIP     -0.372000
     25 CG2         7.5600   -3.3970    5.5440 c2        1 GIP     -0.502000
     26 CL1         9.3760   -3.2240    5.3210 cl        1 GIP      0.707500
     27 CL2         7.2380   -4.8520    6.6440 cl        1 GIP      0.707500
     28 CM1        10.3360   -4.5480    5.8790 c2        1 GIP     -0.629500
     29 CM2         8.6420   -5.5740    7.3700 c2        1 GIP     -0.629500
     30 CZ          9.8860   -5.4050    6.8380 c2        1 GIP      0.008000
     31 I          11.3130   -6.6520    7.6150 i         1 GIP      0.128000
     32 H11N        3.3370   -0.0350   -1.3290 hn        1 GIP      0.257667
     33 H12N        4.9580   -0.4360   -1.3910 hn        1 GIP      0.257667
     34 HA1         5.0600    1.0220    0.3530 hx        1 GIP      0.190000
     35 HB1         2.4760   -0.2490    1.5410 hc        1 GIP      0.113500
     36 HB2         2.4010    1.1560    0.4050 hc        1 GIP      0.113500
     37 HB21        5.2150    0.3060    7.4650 h1        1 GIP      0.172500
     38 HB22        6.3160   -0.1770    6.1200 h1        1 GIP      0.172500
     39 HG1         4.4580    1.8550    2.3180 hc        1 GIP      0.174500
     40 HG2         2.8140    2.5930    2.0820 hc        1 GIP      0.174500
     41 HN21        4.5200   -0.1800    3.7330 hn        1 GIP      0.290000
     42 HA2         3.6910    1.4220    6.1330 hx        1 GIP      0.183000
     43 HN3         8.8140    4.0590    2.2420 ho        1 GIP      0.243000
     44 HA31        8.4840    2.3100    3.8540 h1        1 GIP      0.148000
     45 HA32        7.3100    3.6450    4.3250 h1        1 GIP      0.148000
     46 HOF2        6.9400   -1.7310    3.3670 ho        1 GIP      0.261000
     47 HD2         4.9680   -3.7860    5.5340 h3        1 GIP      0.161000
     48 HOZ1        4.7870   -2.8790    3.2690 ho        1 GIP      0.272000
     49 HL1        10.3150   -2.3900    4.9040 ha        1 GIP     -0.127000
     50 HL2         6.2980   -5.6550    7.1150 ha        1 GIP     -0.127000
     51 HM1        11.3190   -4.5900    5.4150 h4        1 GIP      0.175500
     52 HM2         8.4010   -6.1790    8.2400 h4        1 GIP      0.175500
     53 HN31        3.8800   -1.4860   -0.6670 hn        1 GIP      0.257667
     54 H22         3.2760   -0.5670    4.7830 hn        1 GIP      0.290000
     55 H32         6.6350    0.7570    3.9130 hn        1 GIP      0.276000
@<TRIPOS>BOND
     1    1    2 1
     2    1    3 1
     3    1    5 1
     4    4    5 1
     5    4   32 1
     6    4   33 1
     7    4   53 1
     8    5    6 1
     9    5   34 1
    10    6    9 1
    11    6   35 1
    12    6   36 1
    13    7    8 1
    14    7   13 1
    15    7   37 1
    16    7   38 1
    17    8   23 1
    18    9   10 1
    19    9   39 1
    20    9   40 1
    21   10   11 1
    22   10   12 1
    23   12   13 1
    24   12   41 1
    25   12   54 1
    26   13   14 1
    27   13   42 1
    28   14   15 1
    29   14   16 1
    30   16   17 1
    31   16   55 1
    32   17   18 1
    33   17   44 1
    34   17   45 1
    35   18   19 1
    36   18   20 1
    37   19   43 1
    38   21   22 1
    39   21   23 1
    40   21   25 1
    41   22   46 1
    42   23   24 1
    43   23   47 1
    44   24   48 1
    45   25   26 1
    46   25   27 1
    47   26   28 1
    48   26   49 1
    49   27   29 1
    50   27   50 1
    51   28   30 1
    52   28   51 1
    53   29   30 1
    54   29   52 1
    55   30   31 1
@<TRIPOS>SUBSTRUCTURE
     1 GIP         1 TEMP              0 ****  ****    0 ROOT
