@<TRIPOS>MOLECULE
GIQ
   25    27     1     0     0
SMALL
bcc


@<TRIPOS>ATOM
      1 N3A          0.0000     0.0000     0.0000 na         1 GIQ       0.332700
      2 C3A          1.3850     0.0000     0.0000 ca         1 GIQ      -0.289200
      3 C1A          1.7730     0.0000     1.3440 ca         1 GIQ       0.082400
      4 N1A          0.6500    -0.0080     2.0880 nc         1 GIQ      -0.512100
      5 C           -0.8700     0.0020    -1.1780 c3         1 GIQ      -0.009400
      6 C4A          2.3480     0.0070    -1.0110 ca         1 GIQ      -0.059000
      7 C5A          3.6760     0.0150    -0.7310 ca         1 GIQ      -0.144300
      8 C6A          4.1360     0.0170     0.6010 ca         1 GIQ       0.372600
      9 C10          3.1970     0.0040     1.6600 ca         1 GIQ      -0.093300
     10 N6A          5.4440     0.0250     0.8760 nb         1 GIQ      -0.574000
     11 C7A          5.8810     0.0250     2.1140 ca         1 GIQ       0.403200
     12 C8A          5.0090     0.0180     3.1970 ca         1 GIQ      -0.230300
     13 C9A          3.6570     0.0100     2.9830 ca         1 GIQ      -0.045000
     14 C2A         -0.4010    -0.0080     1.3040 cd         1 GIQ       0.278700
     15 H1          -0.7220    -0.9130    -1.7380 h1         1 GIQ       0.023033
     16 H2          -0.6280     0.8520    -1.8040 h1         1 GIQ       0.023033
     17 H3          -1.9050     0.0690    -0.8630 h1         1 GIQ       0.023033
     18 H4A          2.0270     0.0060    -2.0460 ha         1 GIQ       0.097000
     19 H5A          4.3930     0.0210    -1.5430 ha         1 GIQ       0.117000
     20 H7A          6.9490     0.0320     2.2960 h4         1 GIQ      -0.024900
     21 H8A          5.3990     0.0190     4.2080 ha         1 GIQ       0.111000
     22 H9A          2.9620     0.0040     3.8140 ha         1 GIQ       0.124000
     23 H101        -2.1800    -0.8850     1.8960 hn         1 GIQ       0.273300
     24 H102        -2.1820     0.8480     1.9200 hn         1 GIQ       0.273300
     25 N10         -1.7120    -0.0150     1.7310 nv         1 GIQ      -0.554800
@<TRIPOS>BOND
     1     1     2 1   
     2     1     5 1   
     3     1    14 1   
     4     2     3 ar  
     5     2     6 ar  
     6     3     4 1   
     7     3     9 ar  
     8     4    14 2   
     9     5    15 1   
    10     5    16 1   
    11     5    17 1   
    12     6     7 ar  
    13     6    18 1   
    14     7     8 ar  
    15     7    19 1   
    16     8     9 ar  
    17     8    10 ar  
    18     9    13 ar  
    19    10    11 ar  
    20    11    12 ar  
    21    11    20 1   
    22    12    13 ar  
    23    12    21 1   
    24    13    22 1   
    25    14    25 1   
    26    23    25 1   
    27    24    25 1   
@<TRIPOS>SUBSTRUCTURE
     1 GIQ         1 TEMP              0 ****  ****    0 ROOT
