@<TRIPOS>MOLECULE
GIR
   24    24     1     0     0
SMALL
bcc


@<TRIPOS>ATOM
      1 N1           0.0000     0.0000     0.0000 nz         1 GIR       0.085400
      2 C2           1.4590     0.0000     0.0000 c3         1 GIR      -0.055200
      3 C3           2.0610     0.0000     1.4140 c3         1 GIR      -0.035300
      4 Cl1          1.6320    -1.5460     2.2400 cl         1 GIR      -0.046400
      5 C4           1.6400     1.1850     2.3060 c3         1 GIR       0.315400
      6 O5           2.2320     1.0590     3.6010 oh         1 GIR      -0.539800
      7 C6           2.0880     2.5290     1.7720 cc         1 GIR      -0.547900
      8 N7           1.2060     3.5160     1.5470 na         1 GIR       0.143100
      9 C8           3.3110     2.9870     1.4440 cd         1 GIR       0.434200
     10 N9           3.2180     4.2820     1.0010 nd         1 GIR      -0.662000
     11 C10          1.9370     4.5710     1.0760 cc         1 GIR       0.380400
     12 N11          1.2880     5.7140     0.7630 nv         1 GIR      -0.503500
     13 HN11        -0.3340     0.9430    -0.0260 hn         1 GIR       0.224133
     14 HN12        -0.3340    -0.4490     0.8300 hn         1 GIR       0.224133
     15 H21          1.8070     0.8810    -0.5260 hx         1 GIR       0.096700
     16 H22          1.8070    -0.8810    -0.5260 hx         1 GIR       0.096700
     17 H3           3.1390     0.0330     1.3130 h1         1 GIR       0.103700
     18 H4           0.5610     1.1850     2.4080 h1         1 GIR      -0.036300
     19 HO5          1.5540     0.9940     4.2520 ho         1 GIR       0.405000
     20 HN7          0.2160     3.4860     1.6930 hn         1 GIR       0.121700
     21 H8           4.2300     2.4170     1.5180 h4         1 GIR       0.008100
     22 H111         1.8000     6.5010     0.4170 hn         1 GIR       0.281800
     23 H112         0.2960     5.7730     0.8790 hn         1 GIR       0.281800
     24 H13         -0.3340    -0.4920    -0.8050 hn         1 GIR       0.224133
@<TRIPOS>BOND
     1     1     2 1   
     2     1    13 1   
     3     1    14 1   
     4     1    24 1   
     5     2     3 1   
     6     2    15 1   
     7     2    16 1   
     8     3     4 1   
     9     3     5 1   
    10     3    17 1   
    11     5     6 1   
    12     5     7 1   
    13     5    18 1   
    14     6    19 1   
    15     7     8 1   
    16     7     9 2   
    17     8    11 1   
    18     8    20 1   
    19     9    10 1   
    20     9    21 1   
    21    10    11 2   
    22    11    12 1   
    23    12    22 1   
    24    12    23 1   
@<TRIPOS>SUBSTRUCTURE
     1 GIR         1 TEMP              0 ****  ****    0 ROOT
