@<TRIPOS>MOLECULE
molecule
   24    24     1     0     0
SMALL
bcc


@<TRIPOS>ATOM
      1 N1           0.0000     0.0000     0.0000 nz         1 GIR      -0.807600
      2 C2           1.4590     0.0000     0.0000 c3         1 GIR       0.092800
      3 C3           2.0610     0.0000     1.4140 c3         1 GIR      -0.003300
      4 Cl1          1.6320    -1.5460     2.2400 cl         1 GIR      -0.139400
      5 C4           1.6400     1.1850     2.3060 c3         1 GIR       0.240400
      6 O5           2.2320     1.0590     3.6010 oh         1 GIR      -0.553800
      7 C6           2.0880     2.5290     1.7720 cc         1 GIR      -0.341900
      8 N7           1.2060     3.5160     1.5470 na         1 GIR      -0.364900
      9 C8           3.3110     2.9870     1.4440 cd         1 GIR       0.400200
     10 N9           3.2180     4.2820     1.0010 nd         1 GIR      -0.706000
     11 C10          1.9370     4.5710     1.0760 cc         1 GIR       0.717400
     12 N11          1.2880     5.7140     0.7630 nv         1 GIR      -1.001500
     13 HN11        -0.3340     0.9430    -0.0260 hn         1 GIR       0.459467
     14 HN12        -0.3340    -0.4490     0.8300 hn         1 GIR       0.459467
     15 H21          1.8070     0.8810    -0.5260 hx         1 GIR       0.126200
     16 H22          1.8070    -0.8810    -0.5260 hx         1 GIR       0.126200
     17 H3           3.1390     0.0330     1.3130 h1         1 GIR       0.145700
     18 H4           0.5610     1.1850     2.4080 h1         1 GIR       0.007700
     19 HO5          1.5540     0.9940     4.2520 ho         1 GIR       0.424000
     20 HN7          0.2160     3.4860     1.6930 hn         1 GIR       0.289700
     21 H8           4.2300     2.4170     1.5180 h4         1 GIR       0.052100
     22 H111         1.8000     6.5010     0.4170 hn         1 GIR       0.458800
     23 H112         0.2960     5.7730     0.8790 hn         1 GIR       0.458800
     24 H13         -0.3340    -0.4920    -0.8050 hn         1 GIR       0.459467
@<TRIPOS>BOND
     1     1     2 1
     2     1    13 1
     3     1    14 1
     4     2     3 1
     5     2    15 1
     6     2    16 1
     7     3     4 1
     8     3     5 1
     9     3    17 1
    10     5     6 1
    11     5     7 1
    12     5    18 1
    13     6    19 1
    14     7     8 1
    15     7     9 2
    16     8    11 1
    17     8    20 1
    18     9    10 1
    19     9    21 1
    20    10    11 2
    21    11    12 1
    22    12    22 1
    23    12    23 1
    24    24     1 1
@<TRIPOS>SUBSTRUCTURE
     1 GIR         1 TEMP              0 ****  ****    0 ROOT
