@<TRIPOS>MOLECULE
molecule
   34    34     1     0     0
SMALL
bcc


@<TRIPOS>ATOM
      1 C1           0.0000     0.0000     0.0000 c          1 GIS       0.878200
      2 O1           1.3470     0.0000     0.0000 o          1 GIS      -0.811800
      3 OXT         -0.6060     0.0000     1.0530 o          1 GIS      -0.811800
      4 C2          -0.7400     0.0020    -1.2770 ca         1 GIS      -0.067600
      5 C3          -0.0510     0.1280    -2.4850 ca         1 GIS      -0.077000
      6 C4          -0.7510     0.1300    -3.6800 ca         1 GIS       0.071600
      7 C6          -2.1350    -0.0010    -3.6750 ca         1 GIS      -0.157000
      8 C7          -2.8180    -0.1320    -2.4790 ca         1 GIS      -0.095000
      9 C8          -2.1290    -0.1340    -1.2840 ca         1 GIS      -0.051300
     10 C9          -2.8770    -0.2760     0.0160 c3         1 GIS       0.075000
     11 C10         -3.0960     1.0840     0.6220 c          1 GIS       0.677100
     12 O2          -3.2070     2.0530    -0.0920 o          1 GIS      -0.566000
     13 O3          -3.1690     1.2210     1.9550 os         1 GIS      -0.406900
     14 C11         -3.3810     2.5350     2.5400 c3         1 GIS       0.158400
     15 C12         -3.4230     2.4140     4.0640 c3         1 GIS      -0.095100
     16 N1          -0.0670     0.2630    -4.8920 nu         1 GIS      -0.695600
     17 C5           1.1930    -0.2740    -5.0340 c2         1 GIS       0.660100
     18 N2           1.7050    -0.9940    -4.0770 n2         1 GIS      -0.730100
     19 N3           1.9110    -0.0470    -6.1840 nz         1 GIS      -0.806600
     20 Cl          -4.4710    -1.0620    -0.2910 cl         1 GIS      -0.214400
     21 H3           1.0270     0.2300    -2.4870 ha         1 GIS       0.170000
     22 H6          -2.6810     0.0000    -4.6100 ha         1 GIS       0.114000
     23 H7          -3.8960    -0.2350    -2.4810 ha         1 GIS       0.153000
     24 H9          -2.3000    -0.8870     0.7000 h1         1 GIS       0.167700
     25 H111        -4.3200     2.9410     2.1830 h1         1 GIS       0.042200
     26 H112        -2.5700     3.1930     2.2520 h1         1 GIS       0.042200
     27 H121        -4.1770     1.6900     4.3480 hc         1 GIS       0.045367
     28 H122        -2.4560     2.0890     4.4280 hc         1 GIS       0.045367
     29 H123        -3.6660     3.3770     4.4960 hc         1 GIS       0.045367
     30 HN1         -0.4670     0.8010    -5.6350 hn         1 GIS       0.444800
     31 HN2          2.6210    -1.3840    -4.1780 hn         1 GIS       0.427400
     32 HN31         1.2820     0.0710    -6.9530 hn         1 GIS       0.456467
     33 HN32         2.4640     0.7810    -6.0760 hn         1 GIS       0.456467
     34 H33          2.5120    -0.8280    -6.3620 hn         1 GIS       0.456467
@<TRIPOS>BOND
     1     1     2 1
     2     1     3 1
     3     1     4 1
     4     4     5 ar
     5     4     9 ar
     6     5     6 ar
     7     5    21 1
     8     6     7 ar
     9     6    16 1
    10     7     8 ar
    11     7    22 1
    12     8     9 ar
    13     8    23 1
    14     9    10 1
    15    10    11 1
    16    10    20 1
    17    10    24 1
    18    11    12 2
    19    11    13 1
    20    13    14 1
    21    14    15 1
    22    14    25 1
    23    14    26 1
    24    15    27 1
    25    15    28 1
    26    15    29 1
    27    16    17 1
    28    16    30 1
    29    17    18 2
    30    17    19 1
    31    18    31 1
    32    19    32 1
    33    19    33 1
    34    34    19 1
@<TRIPOS>SUBSTRUCTURE
     1 GIS         1 TEMP              0 ****  ****    0 ROOT
