@<TRIPOS>MOLECULE
molecule
   36    37     1     0     0
SMALL
bcc


@<TRIPOS>ATOM
      1 C7           0.0000     0.0000     0.0000 ca         1 GJ1       0.105100
      2 C6           1.3870     0.0000     0.0000 ca         1 GJ1      -0.177000
      3 C5           2.0770     0.0000     1.1970 ca         1 GJ1      -0.189000
      4 C4           1.3840    -0.0010     2.3980 ca         1 GJ1       0.111100
      5 C2          -0.6940     0.0050     1.2010 ca         1 GJ1      -0.073300
      6 C13         -2.1880    -0.0000    -3.3810 ca         1 GJ1      -0.226300
      7 C11          0.0990    -0.0000    -2.3760 c3         1 GJ1       0.096100
      8 C1          -2.2010     0.0110     1.2010 c3         1 GJ1      -0.036800
      9 C3          -0.0040    -0.0010     2.3970 ca         1 GJ1      -0.125000
     10 O8           2.0640    -0.0020     3.5750 os         1 GJ1      -0.329900
     11 C9           3.4910    -0.0020     3.5000 c3         1 GJ1       0.129700
     12 O10         -0.6800     0.0000    -1.1780 os         1 GJ1      -0.335900
     13 C12         -0.8190     0.0000    -3.5720 ca         1 GJ1       0.420600
     14 C14         -3.0240    -0.0060    -4.4890 ca         1 GJ1      -0.100000
     15 C15         -2.4490    -0.0110    -5.7490 ca         1 GJ1      -0.222300
     16 C16         -1.0710    -0.0110    -5.8610 ca         1 GJ1       0.424600
     17 N17         -0.3070     0.0010    -4.7870 nb         1 GJ1      -0.700000
     18 C18         -0.4350    -0.0160    -7.2280 c3         1 GJ1       0.096100
     19 O19         -1.4550    -0.0210    -8.2280 oh         1 GJ1      -0.615800
     20 H1           1.9290    -0.0020    -0.9380 ha         1 GJ1       0.138000
     21 H2           3.1600    -0.0000     1.1970 ha         1 GJ1       0.136000
     22 H4           0.7240     0.8840    -2.4010 h1         1 GJ1       0.056700
     23 H5           0.7240    -0.8850    -2.4010 h1         1 GJ1       0.056700
     24 H6          -2.5620     0.0180     2.2230 hc         1 GJ1       0.045700
     25 H7          -2.5650    -0.8740     0.6950 hc         1 GJ1       0.045700
     26 H8          -2.5580     0.8950     0.6860 hc         1 GJ1       0.045700
     27 H9          -0.5460     0.0010     3.3350 ha         1 GJ1       0.149000
     28 H10          3.8250     0.8830     2.9720 h1         1 GJ1       0.040033
     29 H11          3.8250    -0.8860     2.9700 h1         1 GJ1       0.040033
     30 H12          3.9050    -0.0030     4.5010 h1         1 GJ1       0.040033
     31 H13         -4.1000    -0.0060    -4.3700 ha         1 GJ1       0.140000
     32 H14         -3.0710    -0.0180    -6.6360 ha         1 GJ1       0.161000
     33 H15          0.1810    -0.9010    -7.3360 h1         1 GJ1       0.043700
     34 H16          0.1800     0.8680    -7.3430 h1         1 GJ1       0.043700
     35 H17         -1.0570    -0.0240    -9.0820 ho         1 GJ1       0.410000
     36 H3          -2.6030     0.0040    -2.3810 ha         1 GJ1       0.157000
@<TRIPOS>BOND
     1     8     5 1
     2     9     5 ar
     3     9     4 ar
     4     5     1 ar
     5    10     4 1
     6    10    11 1
     7     4     3 ar
     8    19    18 1
     9     1    12 1
    10     1     2 ar
    11    12     7 1
    12    15    14 ar
    13    15    16 ar
    14    14     6 ar
    15    18    16 1
    16    16    17 ar
    17     6    13 ar
    18    17    13 ar
    19    13     7 1
    20     3     2 ar
    21     2    20 1
    22     3    21 1
    23     6    36 1
    24     7    22 1
    25     7    23 1
    26     8    24 1
    27     8    25 1
    28     8    26 1
    29     9    27 1
    30    11    28 1
    31    11    29 1
    32    11    30 1
    33    14    31 1
    34    15    32 1
    35    18    33 1
    36    18    34 1
    37    19    35 1
@<TRIPOS>SUBSTRUCTURE
     1 GJ1         1 TEMP              0 ****  ****    0 ROOT
