@<TRIPOS>MOLECULE
molecule
   46    47     1     0     0
SMALL
bcc


@<TRIPOS>ATOM
      1 C4           0.0000     0.0000     0.0000 ca         1 GJ2      -0.160500
      2 C14          6.5540    -3.3660     5.0000 ca         1 GJ2      -0.111500
      3 C5           1.3830     0.0000     0.0000 ca         1 GJ2      -0.065500
      4 C6           2.0760     0.0000     1.1930 ca         1 GJ2      -0.118500
      5 C11          2.6890     0.0160     4.6530 c1         1 GJ2      -0.189100
      6 C7           1.3790     0.0010     2.4020 ca         1 GJ2       0.048000
      7 C8          -0.0160     0.0030     2.3950 ca         1 GJ2      -0.118500
      8 C9          -0.6970     0.0020     1.1940 ca         1 GJ2      -0.065500
      9 C10          2.0910     0.0020     3.6430 cg         1 GJ2      -0.141000
     10 C12          3.4850    -0.2370     6.1690 c3         1 GJ2       0.360900
     11 C13          7.0370    -1.8830     5.3910 ca         1 GJ2      -0.342500
     12 N1          -2.4970     0.5770    -0.9960 n7         1 GJ2      -0.394100
     13 N2           4.2340    -1.4250     6.1590 n7         1 GJ2      -0.765100
     14 C3          -3.7610    -0.5910    -1.2320 c3         1 GJ2       0.146800
     15 F1          -7.1410    -0.4180    -2.2060 f          1 GJ2      -0.247967
     16 C1          -5.9130    -0.6640    -1.7190 c3         1 GJ2       0.659900
     17 F2          -6.1300    -0.8610    -0.2430 f          1 GJ2      -0.247967
     18 F3          -5.8950    -1.9910    -2.2020 f          1 GJ2      -0.247967
     19 C2          -4.7500    -0.1190    -1.7710 c3         1 GJ2      -0.143400
     20 S1          -0.8780     0.0070    -1.5280 sy         1 GJ2       0.169200
     21 O1           0.0040    -0.5400    -2.4990 o          1 GJ2      -0.276300
     22 O2          -2.1640    -0.5320    -1.2540 o          1 GJ2      -0.276300
     23 S2           5.9680    -1.5790     6.4450 sy         1 GJ2       0.934200
     24 O3           6.2280    -0.3220     7.4110 o          1 GJ2      -0.487300
     25 O4           6.1440    -2.5700     7.6440 o          1 GJ2      -0.487300
     26 C15          5.7940    -3.4460     3.6510 ca         1 GJ2      -0.148000
     27 C16          5.4800    -2.2960     2.7080 ca         1 GJ2       0.007000
     28 C17          5.8890    -1.2130     3.0950 ca         1 GJ2      -0.148000
     29 C18          6.6560    -0.6980     4.3160 ca         1 GJ2      -0.111500
     30 H1           7.0000    -3.9130     5.8220 ha         1 GJ2       0.229000
     31 H2           2.0240     0.1590    -0.8590 ha         1 GJ2       0.134000
     32 H3           3.1100     0.3230     1.2130 ha         1 GJ2       0.136000
     33 H4          -0.4900    -0.1440     3.3580 ha         1 GJ2       0.136000
     34 H5          -1.6850     0.0340     0.7500 ha         1 GJ2       0.134000
     35 H6           2.9460    -0.4210     7.0910 h1         1 GJ2       0.097700
     36 H7           4.0890     0.6590     6.1030 h1         1 GJ2       0.097700
     37 H8          -2.9490     1.2370    -0.3940 hn         1 GJ2       0.488800
     38 H9           3.8020    -2.1860     5.6740 hn         1 GJ2       0.412800
     39 H10         -3.1930    -1.2910    -1.8320 h1         1 GJ2       0.107200
     40 H11         -4.0270    -1.1180    -0.3240 h1         1 GJ2       0.107200
     41 H12         -4.5970     0.0090    -2.8360 hc         1 GJ2       0.091700
     42 H13         -4.8450     0.9030    -1.4220 hc         1 GJ2       0.091700
     43 H14          5.4700    -4.4790     3.6890 ha         1 GJ2       0.147000
     44 H15          4.9080    -2.3910     1.7930 ha         1 GJ2       0.181000
     45 H16          5.9400    -0.3140     2.4920 ha         1 GJ2       0.147000
     46 H17          7.0070     0.2290     4.7530 ha         1 GJ2       0.229000
@<TRIPOS>BOND
     1    17    16 1
     2    21    20 2
     3    15    16 1
     4    18    16 1
     5    16    19 1
     6     3     4 ar
     7     3     1 ar
     8    20    12 1
     9    20    22 2
    10    20     1 1
    11    24    23 2
    12     4     6 ar
    13    12    14 1
    14    19    14 1
    15     1     8 ar
    16    25    23 2
    17     2    26 ar
    18     2    11 ar
    19    23    11 1
    20    23    13 1
    21     6     9 1
    22     6     7 ar
    23    26    27 ar
    24    11    29 ar
    25     8     7 ar
    26     9     5 3
    27     5    10 1
    28    13    10 1
    29    27    28 ar
    30    29    28 ar
    31     2    30 1
    32     3    31 1
    33     4    32 1
    34     7    33 1
    35     8    34 1
    36    10    35 1
    37    10    36 1
    38    12    37 1
    39    13    38 1
    40    14    39 1
    41    14    40 1
    42    19    41 1
    43    19    42 1
    44    26    43 1
    45    27    44 1
    46    28    45 1
    47    29    46 1
@<TRIPOS>SUBSTRUCTURE
     1 GJ2         1 TEMP              0 ****  ****    0 ROOT
