@<TRIPOS>MOLECULE
molecule
   43    44     1     0     0
SMALL
bcc


@<TRIPOS>ATOM
      1 C4           0.0000     0.0000     0.0000 c3         1 GJ5      -0.099700
      2 C5           1.5080     0.0000     0.0000 cc         1 GJ5       0.458700
      3 C6           3.5550    -0.0000     0.8820 cd         1 GJ5       0.420800
      4 C11          6.3200     0.0100     4.1090 ca         1 GJ5      -0.146600
      5 C7           3.9360    -0.0020    -0.4130 cc         1 GJ5      -0.179400
      6 C8           4.5190     0.0040     2.0060 ca         1 GJ5      -0.091500
      7 C9           5.8880     0.1110     1.7520 ca         1 GJ5      -0.118000
      8 C10          6.7810     0.1140     2.7930 ca         1 GJ5      -0.089000
      9 C12          4.9500    -0.1030     4.3620 ca         1 GJ5      -0.089000
     10 C13          4.0590    -0.1060     3.3200 ca         1 GJ5      -0.118000
     11 N1           2.2410     0.0000     1.0580 nd         1 GJ5      -0.683000
     12 N2           6.8360    -0.0860     6.4980 ns         1 GJ5      -0.587900
     13 C2          -0.5110     1.4420    -0.0050 c3         1 GJ5      -0.074700
     14 S1           2.4800    -0.0060    -1.4040 ss         1 GJ5      -0.200300
     15 O1           8.4730     0.1080     5.0080 o          1 GJ5      -0.603100
     16 C15          7.7900    -0.0810     7.6110 c3         1 GJ5       0.113000
     17 C16          7.0310    -0.2070     8.9330 c3         1 GJ5      -0.156400
     18 C17          8.0270    -0.2020    10.0950 c3         1 GJ5       0.621900
     19 F1           7.3330    -0.3160    11.3040 f          1 GJ5      -0.223967
     20 F2           8.9060    -1.2820     9.9590 f          1 GJ5      -0.223967
     21 F3           8.7510     0.9950    10.0840 f          1 GJ5      -0.223967
     22 H1          -0.3610    -0.5080     0.8860 hc         1 GJ5       0.065200
     23 H2          -0.3610    -0.5140    -0.8830 hc         1 GJ5       0.065200
     24 H3           4.9560    -0.0030    -0.7780 h4         1 GJ5       0.184000
     25 H4           6.2440     0.1910     0.7330 ha         1 GJ5       0.146500
     26 H5           7.8430     0.1970     2.5960 ha         1 GJ5       0.142000
     27 H6           4.5930    -0.1890     5.3810 ha         1 GJ5       0.142000
     28 H7           2.9970    -0.1940     3.5170 ha         1 GJ5       0.146500
     29 H8           5.8550    -0.1590     6.6800 hn         1 GJ5       0.316500
     30 H9          -2.3250     0.9050    -1.0250 hc         1 GJ5       0.038200
     31 H10         -2.4690     0.9610     0.7380 hc         1 GJ5       0.038200
     32 H11         -2.3920     2.4640    -0.1920 hc         1 GJ5       0.038200
     33 H12         -0.7750     2.9620     1.4920 hc         1 GJ5       0.038200
     34 H13          0.9100     2.4990     1.2140 hc         1 GJ5       0.038200
     35 H14         -0.1650     1.4230     2.1160 hc         1 GJ5       0.038200
     36 H15         -0.0800     1.9750    -0.8440 hc         1 GJ5       0.051700
     37 H16          8.4710    -0.9170     7.5050 h1         1 GJ5       0.070200
     38 H17          8.3500     0.8450     7.6030 h1         1 GJ5       0.070200
     39 H18          6.3490     0.6290     9.0390 hc         1 GJ5       0.081700
     40 H19          6.4700    -1.1330     8.9420 hc         1 GJ5       0.081700
     41 C14          7.2800     0.0150     5.2300 c          1 GJ5       0.676700
     42 C3          -2.0350     1.4430    -0.1300 c3         1 GJ5      -0.087600
     43 C1          -0.1060     2.1320     1.3000 c3         1 GJ5      -0.087600
@<TRIPOS>BOND
     1    19    18 1
     2    15    41 2
     3    20    18 1
     4    18    21 1
     5    18    17 1
     6     9    10 ar
     7     9     4 ar
     8    17    16 1
     9    41     4 1
    10    41    12 1
    11    16    12 1
    12    10     6 ar
    13     4     8 ar
    14    43    13 1
    15     1    13 1
    16     1     2 1
    17    11     2 2
    18    11     3 1
    19    42    13 1
    20     6     3 1
    21     6     7 ar
    22     8     7 ar
    23     2    14 1
    24     3     5 2
    25     5    14 1
    26     1    22 1
    27     1    23 1
    28     5    24 1
    29     7    25 1
    30     8    26 1
    31     9    27 1
    32    10    28 1
    33    12    29 1
    34    42    30 1
    35    42    31 1
    36    42    32 1
    37    43    33 1
    38    43    34 1
    39    43    35 1
    40    13    36 1
    41    16    37 1
    42    16    38 1
    43    17    39 1
    44    17    40 1
@<TRIPOS>SUBSTRUCTURE
     1 GJ5         1 TEMP              0 ****  ****    0 ROOT
