@<TRIPOS>MOLECULE
GJ7
   61    65     1     0     0
SMALL
bcc


@<TRIPOS>ATOM
      1 C1           0.0000     0.0000     0.0000 c3         1 GJ7      -0.138000
      2 C2           1.5310     0.0000     0.0000 c3         1 GJ7      -0.041000
      3 C7           3.5530    -0.0090     3.5460 c3         1 GJ7       0.016000
      4 C9           4.3070    -0.0060     1.2930 c3         1 GJ7      -0.220000
      5 C10          5.4920    -0.0600     2.3060 c3         1 GJ7      -0.063000
      6 C12         10.2730    -3.1070    -1.4750 c2         1 GJ7      -0.196000
      7 C13         11.5320    -3.5870    -1.7800 c2         1 GJ7       0.020000
      8 C14         12.4410    -3.8400    -0.7680 c2         1 GJ7      -0.116000
      9 C15         12.0910    -3.6130     0.5500 c2         1 GJ7      -0.068000
     10 C16         10.8330    -3.1330     0.8610 c2         1 GJ7      -0.058000
     11 C19          8.5260     1.0650    -1.4390 ca         1 GJ7      -0.051500
     12 C20          8.9470    -0.2340    -1.6470 ca         1 GJ7      -0.175500
     13 C21          8.0210    -1.2220    -1.9520 ca         1 GJ7       0.182000
     14 C22          6.6740    -0.9050    -2.0470 ca         1 GJ7      -0.175500
     15 C24          7.1780     1.3810    -1.5300 ca         1 GJ7      -0.045000
     16 N25          5.2500     6.5050    -0.7480 nz         1 GJ7       0.815000
     17 C30          5.0130     3.5490     2.2620 c2         1 GJ7      -0.216000
     18 C31          5.0690     4.5360     1.3150 c2         1 GJ7       0.000000
     19 C32          5.6670     4.2450     0.0790 c2         1 GJ7      -0.368000
     20 C33          6.1840     2.9590    -0.1400 c2         1 GJ7       0.264000
     21 C4           2.0320     0.0000     1.4200 c2         1 GJ7       0.197000
     22 C5           4.7190    -0.8950     3.3900 c3         1 GJ7      -0.160000
     23 C6           4.2370     1.3820     3.7240 c3         1 GJ7      -0.136000
     24 N8           3.0870    -0.0060     2.1280 n          1 GJ7       0.070000
     25 N11          5.4930     1.2970     2.9390 nh         1 GJ7       0.087000
     26 C17          9.9200    -2.8790    -0.1530 c1         1 GJ7       0.007000
     27 C23          6.2540     0.3950    -1.8400 ca         1 GJ7      -0.051500
     28 C29          5.5450     2.2930     1.9780 c2         1 GJ7       0.085000
     29 N34          6.1070     2.0380     0.8050 n2         1 GJ7      -0.163000
     30 H1          -0.4050    -0.7640    -0.6530 hc         1 GJ7       0.063000
     31 H2          -0.3660     0.9730    -0.3040 hc         1 GJ7       0.063000
     32 H3          -0.3390    -0.1780     1.0130 hc         1 GJ7       0.063000
     33 H4           1.8640     0.9280    -0.4490 hc         1 GJ7       0.058000
     34 H5           1.9100    -0.8360    -0.5750 hc         1 GJ7       0.058000
     35 H6           2.8590    -0.3650     4.2980 h1         1 GJ7       0.137000
     36 H7           4.3870     0.9090     0.7180 h1         1 GJ7       0.081000
     37 H8           4.3840    -0.8530     0.6230 h1         1 GJ7       0.081000
     38 H9           6.4520    -0.4500     1.9900 h1         1 GJ7       0.134000
     39 H12         13.4330    -4.1980    -1.0120 ha         1 GJ7       0.126000
     40 H13         12.8040    -3.8120     1.3410 ha         1 GJ7       0.121000
     41 H14         10.5730    -2.9570     1.8970 ha         1 GJ7       0.113000
     42 H15          9.2490     1.8420    -1.2230 ha         1 GJ7       0.105000
     43 H16          9.9860    -0.5130    -1.5230 ha         1 GJ7       0.124500
     44 H17          5.9510    -1.6770    -2.2840 ha         1 GJ7       0.124500
     45 H18          5.4080     6.7650     0.2050 hn         1 GJ7       0.037667
     46 H19          5.6760     7.1660    -1.3680 hn         1 GJ7       0.037667
     47 H20          4.8490     3.8260     3.2960 ha         1 GJ7       0.152000
     48 H21          4.3330     5.3310     1.3340 ha         1 GJ7       0.094000
     49 H22          4.4130    -1.8830     3.0700 hc         1 GJ7       0.094500
     50 H23          5.3190    -0.8850     4.2920 hc         1 GJ7       0.094500
     51 H24          4.4160     1.5950     4.7710 h1         1 GJ7       0.088500
     52 H25          3.5460     2.0990     3.2960 h1         1 GJ7       0.088500
     53 H26          5.2010     0.6380    -1.9130 ha         1 GJ7       0.105000
     54 O28          6.7650     2.6600    -1.3260 os         1 GJ7      -0.072000
     55 O3           1.2450    -0.0010     2.3420 o          1 GJ7      -0.487000
     56 H10          9.5680    -2.8880    -2.2680 DU         1 GJ7       0.299000
     57 H253         4.2640     6.4760    -0.9170 hn         1 GJ7       0.037667
     58 C27          5.7500     5.2730    -0.9700 c2         1 GJ7       0.100000
     59 O18          8.4340    -2.5010    -2.1570 oh         1 GJ7      -0.338000
     60 O26          6.2710     5.0120    -2.0380 o          1 GJ7      -0.197000
     61 H11         11.7870    -3.7870    -2.8130 ha         1 GJ7       0.110000
@<TRIPOS>BOND
     1     1     2 1   
     2     1    30 1   
     3     1    31 1   
     4     1    32 1   
     5     2    21 1   
     6     2    33 1   
     7     2    34 1   
     8     3    22 1   
     9     3    23 1   
    10     3    24 1   
    11     3    35 1   
    12     4     5 1   
    13     4    24 1   
    14     4    36 1   
    15     4    37 1   
    16     5    22 1   
    17     5    25 1   
    18     5    38 1   
    19     6     7 1   
    20     6    26 1   
    21     6    56 1   
    22     7     8 1   
    23     7    61 1   
    24     8     9 1   
    25     8    39 1   
    26     9    10 1   
    27     9    40 1   
    28    10    26 1   
    29    10    41 1   
    30    11    12 1   
    31    11    15 1   
    32    11    42 1   
    33    12    13 1   
    34    12    43 1   
    35    13    14 1   
    36    13    59 1   
    37    14    27 1   
    38    14    44 1   
    39    15    27 1   
    40    15    54 1   
    41    16    45 1   
    42    16    46 1   
    43    16    57 1   
    44    16    58 1   
    45    17    18 1   
    46    17    28 1   
    47    17    47 1   
    48    18    19 1   
    49    18    48 1   
    50    19    20 1   
    51    19    58 1   
    52    20    29 1   
    53    20    54 1   
    54    21    24 1   
    55    21    55 1   
    56    22    49 1   
    57    22    50 1   
    58    23    25 1   
    59    23    51 1   
    60    23    52 1   
    61    25    28 1   
    62    27    53 1   
    63    28    29 1   
    64    56    59 1   
    65    58    60 1   
@<TRIPOS>SUBSTRUCTURE
     1 GJ7         1 TEMP              0 ****  ****    0 ROOT
