@<TRIPOS>MOLECULE
GJ8
   49    51     1     0     0
SMALL
bcc


@<TRIPOS>ATOM
      1 C4           0.0000     0.0000     0.0000 c          1 GJ8       0.599700
      2 C14          8.7090     0.0130     2.1230 c3         1 GJ8       0.220500
      3 C5           1.4770     0.0000     0.0000 ca         1 GJ8      -0.153600
      4 C6           2.1770     0.0000     1.2100 ca         1 GJ8      -0.060500
      5 C11          5.7260    -0.0020    -0.0010 cc         1 GJ8       0.379800
      6 C7           3.5480    -0.0000     1.2080 ca         1 GJ8      -0.093500
      7 C8           4.2450    -0.0020    -0.0010 ca         1 GJ8      -0.105500
      8 C9           3.5470    -0.0020    -1.2110 ca         1 GJ8      -0.093500
      9 C10          2.1750    -0.0080    -1.2110 ca         1 GJ8      -0.060500
     10 C12          6.4610    -0.0040    -1.1340 cd         1 GJ8      -0.108400
     11 C13          7.7290     0.0080     0.9790 cd         1 GJ8       0.406700
     12 N1          -0.6730    -0.0010    -1.1680 ns         1 GJ8      -0.205900
     13 N2           9.0240    -1.3660     2.5030 n7         1 GJ8      -0.585100
     14 C3          -2.1380     0.0010    -1.1660 c3         1 GJ8       0.053000
     15 N3           6.4470     0.0030     1.1100 nc         1 GJ8      -0.539000
     16 F1          -4.6450     1.1440    -1.9500 f          1 GJ8      -0.205300
     17 C1          -4.1800     0.0000    -2.6090 c3         1 GJ8       0.577900
     18 F2          -4.6460    -1.1410    -1.9480 f          1 GJ8      -0.205300
     19 F3          -4.6450    -0.0010    -3.9280 f          1 GJ8      -0.205300
     20 C2          -2.6490    -0.0010    -2.6100 c3         1 GJ8      -0.105400
     21 O1          -0.6070    -0.0030     1.0530 o          1 GJ8      -0.639100
     22 S1           8.1620    -0.0040    -0.6750 ss         1 GJ8      -0.268300
     23 S2          10.3350    -1.6810     3.4660 sy         1 GJ8       1.045200
     24 O2          10.3470    -3.0860     3.6780 o          1 GJ8      -0.584800
     25 O3          11.4270    -0.9710     2.8990 o          1 GJ8      -0.584800
     26 C15         10.0200    -0.9440     5.0340 ca         1 GJ8      -0.163500
     27 C16         10.4090     0.3610     5.2740 ca         1 GJ8       0.005500
     28 C17         10.1570     0.9420     6.5040 ca         1 GJ8      -0.131500
     29 C18          9.5170     0.2180     7.4910 ca         1 GJ8      -0.044000
     30 C19          9.1260    -1.0860     7.2500 ca         1 GJ8      -0.131500
     31 C20          9.3790    -1.6670     6.0220 ca         1 GJ8       0.005500
     32 H1           9.6170     0.5200     1.8180 h1         1 GJ8       0.029200
     33 H2           8.2740     0.5300     2.9690 h1         1 GJ8       0.029200
     34 H3           1.6360     0.0010     2.1490 ha         1 GJ8       0.115500
     35 H4           4.0900    -0.0000     2.1460 ha         1 GJ8       0.118000
     36 H5           4.0890    -0.0080    -2.1490 ha         1 GJ8       0.118000
     37 H6           1.6340    -0.0080    -2.1490 ha         1 GJ8       0.115500
     38 H7           6.0730    -0.0100    -2.1460 h4         1 GJ8       0.165000
     39 H8          -0.1740     0.0460    -2.0340 hn         1 GJ8       0.180500
     40 H9           8.4570    -2.1190     2.1670 hn         1 GJ8       0.357800
     41 H10         -2.4990     0.8860    -0.6570 h1         1 GJ8       0.041700
     42 H11         -2.5000    -0.8830    -0.6550 h1         1 GJ8       0.041700
     43 H12         -2.2880     0.8830    -3.1220 hc         1 GJ8       0.051200
     44 H13         -2.2890    -0.8860    -3.1200 hc         1 GJ8       0.051200
     45 H14         10.9110     0.9280     4.5000 ha         1 GJ8       0.122000
     46 H15         10.4620     1.9640     6.6930 ha         1 GJ8       0.110000
     47 H16          9.3190     0.6730     8.4540 ha         1 GJ8       0.103000
     48 H17          8.6240    -1.6530     8.0250 ha         1 GJ8       0.110000
     49 H18          9.0730    -2.6890     5.8330 ha         1 GJ8       0.122000
@<TRIPOS>BOND
     1     1     3 1   
     2     1    12 1   
     3     1    21 2   
     4     2    11 1   
     5     2    13 1   
     6     2    32 1   
     7     2    33 1   
     8     3     4 ar  
     9     3     9 ar  
    10     4     6 ar  
    11     4    34 1   
    12     5     7 1   
    13     5    10 2   
    14     5    15 1   
    15     6     7 ar  
    16     6    35 1   
    17     7     8 ar  
    18     8     9 ar  
    19     8    36 1   
    20     9    37 1   
    21    10    22 1   
    22    10    38 1   
    23    11    15 2   
    24    11    22 1   
    25    12    14 1   
    26    12    39 1   
    27    13    23 1   
    28    13    40 1   
    29    14    20 1   
    30    14    41 1   
    31    14    42 1   
    32    16    17 1   
    33    17    18 1   
    34    17    19 1   
    35    17    20 1   
    36    20    43 1   
    37    20    44 1   
    38    23    24 2   
    39    23    25 2   
    40    23    26 1   
    41    26    27 ar  
    42    26    31 ar  
    43    27    28 ar  
    44    27    45 1   
    45    28    29 ar  
    46    28    46 1   
    47    29    30 ar  
    48    29    47 1   
    49    30    31 ar  
    50    30    48 1   
    51    31    49 1   
@<TRIPOS>SUBSTRUCTURE
     1 GJ8         1 TEMP              0 ****  ****    0 ROOT
