@<TRIPOS>MOLECULE
molecule
   49    51     1     0     0
SMALL
bcc


@<TRIPOS>ATOM
      1 C4           0.0000     0.0000     0.0000 c          1 GJ8       0.675700
      2 C14          8.7090     0.0130     2.1230 c3         1 GJ8       0.219500
      3 C5           1.4770     0.0000     0.0000 ca         1 GJ8      -0.143600
      4 C6           2.1770     0.0000     1.2100 ca         1 GJ8      -0.088500
      5 C11          5.7260    -0.0020    -0.0010 cc         1 GJ8       0.420800
      6 C7           3.5480    -0.0000     1.2080 ca         1 GJ8      -0.116500
      7 C8           4.2450    -0.0020    -0.0010 ca         1 GJ8      -0.096500
      8 C9           3.5470    -0.0020    -1.2110 ca         1 GJ8      -0.116500
      9 C10          2.1750    -0.0080    -1.2110 ca         1 GJ8      -0.088500
     10 C12          6.4610    -0.0040    -1.1340 cd         1 GJ8      -0.178400
     11 C13          7.7290     0.0080     0.9790 cd         1 GJ8       0.424700
     12 N1          -0.6730    -0.0010    -1.1680 ns         1 GJ8      -0.587900
     13 N2           9.0240    -1.3660     2.5030 n7         1 GJ8      -0.914100
     14 C3          -2.1380     0.0010    -1.1660 c3         1 GJ8       0.113000
     15 N3           6.4470     0.0030     1.1100 nc         1 GJ8      -0.667000
     16 F1          -4.6450     1.1440    -1.9500 f          1 GJ8      -0.223633
     17 C1          -4.1800     0.0000    -2.6090 c3         1 GJ8       0.621900
     18 F2          -4.6460    -1.1410    -1.9480 f          1 GJ8      -0.223633
     19 F3          -4.6450    -0.0010    -3.9280 f          1 GJ8      -0.223633
     20 C2          -2.6490    -0.0010    -2.6100 c3         1 GJ8      -0.156400
     21 O1          -0.6070    -0.0030     1.0530 o          1 GJ8      -0.599100
     22 S1           8.1620    -0.0040    -0.6750 ss         1 GJ8      -0.161300
     23 S2          10.3350    -1.6810     3.4660 sy         1 GJ8       1.424200
     24 O2          10.3470    -3.0860     3.6780 o          1 GJ8      -0.633300
     25 O3          11.4270    -0.9710     2.8990 o          1 GJ8      -0.633300
     26 C15         10.0200    -0.9440     5.0340 ca         1 GJ8      -0.317500
     27 C16         10.4090     0.3610     5.2740 ca         1 GJ8      -0.028000
     28 C17         10.1570     0.9420     6.5040 ca         1 GJ8      -0.149500
     29 C18          9.5170     0.2180     7.4910 ca         1 GJ8      -0.072000
     30 C19          9.1260    -1.0860     7.2500 ca         1 GJ8      -0.149500
     31 C20          9.3790    -1.6670     6.0220 ca         1 GJ8      -0.028000
     32 H1           9.6170     0.5200     1.8180 h1         1 GJ8       0.068700
     33 H2           8.2740     0.5300     2.9690 h1         1 GJ8       0.068700
     34 H3           1.6360     0.0010     2.1490 ha         1 GJ8       0.143000
     35 H4           4.0900    -0.0000     2.1460 ha         1 GJ8       0.146500
     36 H5           4.0890    -0.0080    -2.1490 ha         1 GJ8       0.146500
     37 H6           1.6340    -0.0080    -2.1490 ha         1 GJ8       0.143000
     38 H7           6.0730    -0.0100    -2.1460 h4         1 GJ8       0.185000
     39 H8          -0.1740     0.0460    -2.0340 hn         1 GJ8       0.315500
     40 H9           8.4570    -2.1190     2.1670 hn         1 GJ8       0.464800
     41 H10         -2.4990     0.8860    -0.6570 h1         1 GJ8       0.070200
     42 H11         -2.5000    -0.8830    -0.6550 h1         1 GJ8       0.070200
     43 H12         -2.2880     0.8830    -3.1220 hc         1 GJ8       0.081200
     44 H13         -2.2890    -0.8860    -3.1200 hc         1 GJ8       0.081200
     45 H14         10.9110     0.9280     4.5000 ha         1 GJ8       0.149500
     46 H15         10.4620     1.9640     6.6930 ha         1 GJ8       0.138500
     47 H16          9.3190     0.6730     8.4540 ha         1 GJ8       0.135000
     48 H17          8.6240    -1.6530     8.0250 ha         1 GJ8       0.138500
     49 H18          9.0730    -2.6890     5.8330 ha         1 GJ8       0.149500
@<TRIPOS>BOND
     1    18    17 1
     2    19    17 1
     3    21     1 2
     4    17    16 1
     5    17    20 1
     6    28    29 ar
     7    28    27 ar
     8    20    14 1
     9    29    30 ar
    10    27    26 ar
    11     9     8 ar
    12     9     3 ar
    13     1     3 1
    14     1    12 1
    15    14    12 1
    16     8     7 ar
    17     3     4 ar
    18    13     2 1
    19    13    23 1
    20    30    31 ar
    21    26    31 ar
    22    26    23 1
    23    15    11 2
    24    15     5 1
    25     2    11 1
    26     7     5 1
    27     7     6 ar
    28     4     6 ar
    29    23    24 2
    30    23    25 2
    31    11    22 1
    32     5    10 2
    33    10    22 1
    34     2    32 1
    35     2    33 1
    36     4    34 1
    37     6    35 1
    38     8    36 1
    39     9    37 1
    40    10    38 1
    41    12    39 1
    42    13    40 1
    43    14    41 1
    44    14    42 1
    45    20    43 1
    46    20    44 1
    47    27    45 1
    48    28    46 1
    49    29    47 1
    50    30    48 1
    51    31    49 1
@<TRIPOS>SUBSTRUCTURE
     1 GJ8         1 TEMP              0 ****  ****    0 ROOT
