@<TRIPOS>MOLECULE
molecule
   29    30     1     0     0
SMALL
bcc


@<TRIPOS>ATOM
      1 C            0.0000     0.0000     0.0000 c          1 GJB       0.698500
      2 O           -0.6280     0.0000    -1.0370 o          1 GJB      -0.581500
      3 CA           1.5170     0.0000     0.0000 c3         1 GJB      -0.243400
      4 CB           2.1870     0.0000     1.3610 c          1 GJB       0.696500
      5 OAC         -0.5870     0.0120     3.3800 o          1 GJB      -0.638500
      6 CAE         -6.2150    -1.4140     0.1460 ca         1 GJB      -0.127000
      7 CAF         -4.8330    -1.4200     0.1110 ca         1 GJB      -0.120500
      8 CAG         -6.8750    -1.4070     1.3610 ca         1 GJB      -0.127000
      9 CAH         -4.1110    -1.4200     1.2900 ca         1 GJB      -0.090300
     10 CA0          0.0540     0.0060     2.3500 c          1 GJB       0.816500
     11 CAJ         -2.0890     0.0130     1.2340 c3         1 GJB       0.107000
     12 NAL         -0.6240     0.0060     1.1960 n          1 GJB      -0.485400
     13 OAN          3.3950     0.0000     1.4670 o          1 GJB      -0.580500
     14 NAB          1.3890     0.0000     2.4500 ns         1 GJB      -0.575500
     15 CAQ         -2.6050    -1.4270     1.2510 c3         1 GJB      -0.053100
     16 CAP         -6.1530    -1.4070     2.5400 ca         1 GJB      -0.127000
     17 CAO         -4.7720    -1.4140     2.5040 ca         1 GJB      -0.120500
     18 HA1C         1.8160     0.9240    -0.4800 hc         1 GJB       0.117700
     19 HA2C         1.8160    -0.9240    -0.4800 hc         1 GJB       0.117700
     20 HAB          1.8080    -0.0030     3.3590 hn         1 GJB       0.366500
     21 HAF         -4.3150    -1.4250    -0.8410 ha         1 GJB       0.135500
     22 HAG         -7.9580    -1.4020     1.3890 ha         1 GJB       0.130000
     23 HAP         -6.6700    -1.4030     3.4920 ha         1 GJB       0.131000
     24 HAQ1        -2.2690    -1.9420     0.3590 hc         1 GJB       0.059700
     25 HAQ2        -2.2240    -1.9370     2.1280 hc         1 GJB       0.059700
     26 HAO         -4.2060    -1.4140     3.4280 ha         1 GJB       0.135500
     27 HAJ1        -2.4240     0.5280     2.1260 h1         1 GJB       0.084200
     28 HAJ2        -2.4700     0.5230     0.3580 h1         1 GJB       0.084200
     29 HAE         -6.7800    -1.4140    -0.7780 ha         1 GJB       0.131000
@<TRIPOS>BOND
     1     1     2 2
     2     1     3 1
     3     1    12 1
     4     3     4 1
     5     4    13 2
     6     4    14 1
     7     5    10 2
     8     6     7 ar
     9     6     8 ar
    10     7     9 ar
    11     8    16 ar
    12     9    15 1
    13     9    17 ar
    14    10    12 1
    15    10    14 1
    16    11    12 1
    17    11    15 1
    18    16    17 ar
    19     3    18 1
    20     3    19 1
    21    14    20 1
    22     6    29 1
    23     7    21 1
    24     8    22 1
    25    16    23 1
    26    15    24 1
    27    15    25 1
    28    17    26 1
    29    11    27 1
    30    11    28 1
@<TRIPOS>SUBSTRUCTURE
     1 GJB         1 TEMP              0 ****  ****    0 ROOT
