@<TRIPOS>MOLECULE
GJD
   39    40     1     0     0
SMALL
bcc


@<TRIPOS>ATOM
      1 C2           0.0000     0.0000     0.0000 ca         1 GJD       0.798900
      2 C4           2.0040     0.0000     1.1410 ca         1 GJD       0.632200
      3 C5           1.2890     0.0020     2.3580 ca         1 GJD      -0.599200
      4 C6          -0.1100     0.0130     2.3030 ca         1 GJD       0.536200
      5 CAT         -6.8570     2.8620    -0.4030 c3         1 GJD       0.020900
      6 CAS         -5.4110     3.2140    -0.7560 c3         1 GJD      -0.095400
      7 OAR         -5.2900     0.9400    -1.3770 o          1 GJD      -0.633100
      8 NAN         -3.4050     2.0770    -1.6530 ns         1 GJD      -0.218900
      9 CAL         -2.7140     0.8920    -2.1660 c3         1 GJD      -0.000300
     10 CAM         -2.1310     0.0670    -1.0030 c3         1 GJD       0.010800
     11 CAK         -1.4900     1.3090    -3.0150 c3         1 GJD      -0.043400
     12 CAJ         -0.3170     1.1990    -2.0100 c3         1 GJD       0.149800
     13 NAI         -0.6680     0.0010    -1.2070 nh         1 GJD      -0.370300
     14 N3           1.3250     0.0000     0.0000 nb         1 GJD      -0.703000
     15 NAH          3.3830    -0.0000     1.1370 nv         1 GJD      -0.448500
     16 N1          -0.7050     0.0070     1.1250 nb         1 GJD      -0.662000
     17 CAG          1.9950     0.0020     3.6500 c          1 GJD       0.379700
     18 OAO          3.2070     0.0980     3.6810 o          1 GJD      -0.498100
     19 NAP          1.2980    -0.1040     4.7990 nz         1 GJD       0.207600
     20 H1          -0.6950     0.0160     3.2150 h4         1 GJD      -0.043900
     21 H2          -7.3600     3.7430    -0.0220 hc         1 GJD       0.012367
     22 H3          -6.8660     2.0860     0.3520 hc         1 GJD       0.012367
     23 H4          -7.3690     2.5090    -1.2900 hc         1 GJD       0.012367
     24 H5          -5.4020     3.9920    -1.5100 hc         1 GJD       0.025200
     25 H6          -4.9250     3.5760     0.1420 hc         1 GJD       0.025200
     26 H7          -2.9360     2.9600    -1.6350 hn         1 GJD       0.177500
     27 H8          -3.3870     0.2820    -2.7550 h1         1 GJD       0.074700
     28 H9          -2.7850    -0.6030    -1.5470 h1         1 GJD       0.094200
     29 H10         -2.4830     0.3960    -0.0320 h1         1 GJD       0.094200
     30 H11         -1.5990     2.3290    -3.3650 hc         1 GJD       0.043200
     31 H12         -1.3490     0.6250    -3.8430 hc         1 GJD       0.043200
     32 H13         -0.2710     2.0800    -1.3810 h1         1 GJD       0.031700
     33 H14          0.6190     1.0460    -2.5340 h1         1 GJD       0.031700
     34 H15          3.8810     0.4730     0.4100 hn         1 GJD       0.297800
     35 H16          3.8850    -0.5090     1.8380 hn         1 GJD       0.297800
     36 H17          1.9330    -0.1550     5.5710 hn         1 GJD       0.243800
     37 H18          0.7060     0.6960     4.9050 hn         1 GJD       0.243800
     38 HAP3         0.7370    -0.9320     4.7730 hn         1 GJD       0.243800
     39 CAQ         -4.6990     1.9950    -1.2840 c          1 GJD       0.576100
@<TRIPOS>BOND
     1     1    13 1   
     2     1    14 ar  
     3     1    16 ar  
     4     2     3 ar  
     5     2    14 ar  
     6     2    15 1   
     7     3     4 ar  
     8     3    17 1   
     9     4    16 ar  
    10     4    20 1   
    11     5     6 1   
    12     5    21 1   
    13     5    22 1   
    14     5    23 1   
    15     6    24 1   
    16     6    25 1   
    17     6    39 1   
    18     7    39 2   
    19     8     9 1   
    20     8    26 1   
    21     8    39 1   
    22     9    10 1   
    23     9    11 1   
    24     9    27 1   
    25    10    13 1   
    26    10    28 1   
    27    10    29 1   
    28    11    12 1   
    29    11    30 1   
    30    11    31 1   
    31    12    13 1   
    32    12    32 1   
    33    12    33 1   
    34    15    34 1   
    35    15    35 1   
    36    17    18 2   
    37    17    19 1   
    38    19    36 1   
    39    19    37 1   
    40    19    38 1   
@<TRIPOS>SUBSTRUCTURE
     1 GJD         1 TEMP              0 ****  ****    0 ROOT
