@<TRIPOS>MOLECULE
molecule
   39    40     1     0     0
SMALL
bcc


@<TRIPOS>ATOM
      1 C2           0.0000     0.0000     0.0000 ca         1 GJD       0.966900
      2 C4           2.0040     0.0000     1.1410 ca         1 GJD       0.832200
      3 C5           1.2890     0.0020     2.3580 ca         1 GJD      -0.573200
      4 C6          -0.1100     0.0130     2.3030 ca         1 GJD       0.541200
      5 CAT         -6.8570     2.8620    -0.4030 c3         1 GJD      -0.077100
      6 CAS         -5.4110     3.2140    -0.7560 c3         1 GJD      -0.159400
      7 OAR         -5.2900     0.9400    -1.3770 o          1 GJD      -0.598100
      8 NAN         -3.4050     2.0770    -1.6530 ns         1 GJD      -0.597900
      9 CAL         -2.7140     0.8920    -2.1660 c3         1 GJD       0.085700
     10 CAM         -2.1310     0.0670    -1.0030 c3         1 GJD       0.066800
     11 CAK         -1.4900     1.3090    -3.0150 c3         1 GJD      -0.106400
     12 CAJ         -0.3170     1.1990    -2.0100 c3         1 GJD       0.166800
     13 NAI         -0.6680     0.0010    -1.2070 nh         1 GJD      -0.623300
     14 N3           1.3250     0.0000     0.0000 nb         1 GJD      -0.799000
     15 NAH          3.3830    -0.0000     1.1370 nv         1 GJD      -0.971500
     16 N1          -0.7050     0.0070     1.1250 nb         1 GJD      -0.774000
     17 CAG          1.9950     0.0020     3.6500 c          1 GJD       0.524700
     18 OAO          3.2070     0.0980     3.6810 o          1 GJD      -0.464100
     19 NAP          1.2980    -0.1040     4.7990 nz         1 GJD      -0.676400
     20 H1          -0.6950     0.0160     3.2150 h4         1 GJD       0.006100
     21 H2          -7.3600     3.7430    -0.0220 hc         1 GJD       0.048367
     22 H3          -6.8660     2.0860     0.3520 hc         1 GJD       0.048367
     23 H4          -7.3690     2.5090    -1.2900 hc         1 GJD       0.048367
     24 H5          -5.4020     3.9920    -1.5100 hc         1 GJD       0.059700
     25 H6          -4.9250     3.5760     0.1420 hc         1 GJD       0.059700
     26 H7          -2.9360     2.9600    -1.6350 hn         1 GJD       0.313500
     27 H8          -3.3870     0.2820    -2.7550 h1         1 GJD       0.100700
     28 H9          -2.7850    -0.6030    -1.5470 h1         1 GJD       0.120200
     29 H10         -2.4830     0.3960    -0.0320 h1         1 GJD       0.120200
     30 H11         -1.5990     2.3290    -3.3650 hc         1 GJD       0.078200
     31 H12         -1.3490     0.6250    -3.8430 hc         1 GJD       0.078200
     32 H13         -0.2710     2.0800    -1.3810 h1         1 GJD       0.066200
     33 H14          0.6190     1.0460    -2.5340 h1         1 GJD       0.066200
     34 H15          3.8810     0.4730     0.4100 hn         1 GJD       0.470300
     35 H16          3.8850    -0.5090     1.8380 hn         1 GJD       0.470300
     36 H17          1.9330    -0.1550     5.5710 hn         1 GJD       0.475800
     37 H18          0.7060     0.6960     4.9050 hn         1 GJD       0.475800
     38 HAP3         0.7370    -0.9320     4.7730 hn         1 GJD       0.475800
     39 CAQ         -4.6990     1.9950    -1.2840 c          1 GJD       0.657100
@<TRIPOS>BOND
     1    12    11 1
     2    12    13 1
     3    11     9 1
     4    16     4 ar
     5    16     1 ar
     6     4     3 ar
     7    19    17 1
     8    13     1 1
     9    13    10 1
    10     8     9 1
    11     8    39 1
    12     1    14 ar
    13     9    10 1
    14     3    17 1
    15     3     2 ar
    16     6    39 1
    17     6     5 1
    18    17    18 2
    19    39     7 2
    20    14     2 ar
    21     2    15 1
    22     4    20 1
    23     5    21 1
    24     5    22 1
    25     5    23 1
    26     6    24 1
    27     6    25 1
    28     8    26 1
    29     9    27 1
    30    10    28 1
    31    10    29 1
    32    11    30 1
    33    11    31 1
    34    12    32 1
    35    12    33 1
    36    15    34 1
    37    15    35 1
    38    19    36 1
    39    19    37 1
    40    38    19 1
@<TRIPOS>SUBSTRUCTURE
     1 GJD         1 TEMP              0 ****  ****    0 ROOT
