@<TRIPOS>MOLECULE
molecule
   34    35     1     0     0
SMALL
bcc


@<TRIPOS>ATOM
      1 N3           0.0000     0.0000     0.0000 nb         1 GJG      -0.746000
      2 C4           1.3260     0.0000     0.0000 ca         1 GJG       0.759200
      3 C5          -0.6910     0.0010     1.1210 ca         1 GJG       0.517200
      4 C8           1.3640     0.0010     2.3850 ca         1 GJG       0.040000
      5 C10          2.0420     0.0000     1.1960 ca         1 GJG      -0.320300
      6 C13          3.9740     0.6070    -2.5280 c3         1 GJG      -0.101400
      7 C15          5.5150    -1.4390    -1.1040 c3         1 GJG      -0.081400
      8 O7          -0.2380     0.0040     4.6810 o          1 GJG      -0.441100
      9 N9          -2.1620     0.0040     3.5710 nz         1 GJG      -0.677400
     10 C1          -0.0400     0.0020     2.3550 ca         1 GJG      -0.426900
     11 N6           2.0090    -0.0020    -1.2040 nu         1 GJG      -0.848900
     12 C11          3.4740    -0.0020    -1.2160 c3         1 GJG       0.220500
     13 C14          5.5030     0.6060    -2.5390 c3         1 GJG      -0.081400
     14 C16          6.0150    -0.8310    -2.4160 c3         1 GJG      -0.076400
     15 C12          3.9850    -1.4390    -1.0920 c3         1 GJG      -0.101400
     16 H1          -1.7740     0.0010     1.0850 h4         1 GJG      -0.002900
     17 H2           1.8980     0.0020     3.3280 ha         1 GJG       0.173000
     18 H3           3.1260    -0.0000     1.1850 ha         1 GJG       0.174000
     19 H4           3.6140     1.6250    -2.6120 hc         1 GJG       0.052700
     20 H5           3.6070     0.0180    -3.3600 hc         1 GJG       0.052700
     21 H6           5.8750    -2.4570    -1.0190 hc         1 GJG       0.056200
     22 H7           5.8820    -0.8500    -0.2720 hc         1 GJG       0.056200
     23 H8          -2.4820    -0.8140     3.0900 hn         1 GJG       0.474133
     24 H9          -2.4780     0.8210     3.0860 hn         1 GJG       0.474133
     25 H10          1.5020     0.0190    -2.0670 hn         1 GJG       0.469800
     26 H11          3.8460     0.5840    -0.3840 h1         1 GJG       0.066700
     27 H12          5.4100     0.9760    -1.5260 hc         1 GJG       0.056200
     28 H13          5.9840     1.2670    -3.2500 hc         1 GJG       0.056200
     29 H14          5.6450    -1.4170    -3.2490 hc         1 GJG       0.055700
     30 H15          7.0980    -0.8290    -2.4220 hc         1 GJG       0.055700
     31 H16          3.6180    -2.0240    -1.9270 hc         1 GJG       0.052700
     32 H17          3.6320    -1.8670    -0.1610 hc         1 GJG       0.052700
     33 C2          -0.8140     0.0030     3.6100 c          1 GJG       0.513700
     34 H93         -2.5320     0.0100     4.5000 hn         1 GJG       0.474133
@<TRIPOS>BOND
     1     5     4 ar
     2     5     2 ar
     3     4    10 ar
     4     8    33 2
     5    11     2 1
     6    11    12 1
     7     2     1 ar
     8    10    33 1
     9    10     3 ar
    10    33     9 1
    11     6    12 1
    12     6    13 1
    13    12    15 1
    14     1     3 ar
    15    15     7 1
    16    13    14 1
    17    14     7 1
    18     3    16 1
    19     4    17 1
    20     5    18 1
    21     6    19 1
    22     6    20 1
    23     7    21 1
    24     7    22 1
    25     9    23 1
    26     9    24 1
    27    11    25 1
    28    12    26 1
    29    13    27 1
    30    13    28 1
    31    14    29 1
    32    14    30 1
    33    15    31 1
    34    15    32 1
    35    34     9 1
@<TRIPOS>SUBSTRUCTURE
     1 GJG         1 TEMP              0 ****  ****    0 ROOT
