@<TRIPOS>MOLECULE
GJG
   34    35     1     0     0
SMALL
bcc


@<TRIPOS>ATOM
      1 N3           0.0000     0.0000     0.0000 nb         1 GJG      -0.634000
      2 C4           1.3260     0.0000     0.0000 ca         1 GJG       0.565200
      3 C5          -0.6910     0.0010     1.1210 ca         1 GJG       0.507200
      4 C8           1.3640     0.0010     2.3850 ca         1 GJG       0.098000
      5 C10          2.0420     0.0000     1.1960 ca         1 GJG      -0.319300
      6 C13          3.9740     0.6070    -2.5280 c3         1 GJG      -0.044400
      7 C15          5.5150    -1.4390    -1.1040 c3         1 GJG      -0.026400
      8 O7          -0.2380     0.0040     4.6810 o          1 GJG      -0.460100
      9 N9          -2.1620     0.0040     3.5710 nz         1 GJG       0.202600
     10 C1          -0.0400     0.0020     2.3550 ca         1 GJG      -0.458900
     11 N6           2.0090    -0.0020    -1.2040 nu         1 GJG      -0.396900
     12 C11          3.4740    -0.0020    -1.2160 c3         1 GJG       0.098500
     13 C14          5.5030     0.6060    -2.5390 c3         1 GJG      -0.026400
     14 C16          6.0150    -0.8310    -2.4160 c3         1 GJG      -0.016400
     15 C12          3.9850    -1.4390    -1.0920 c3         1 GJG      -0.044400
     16 H1          -1.7740     0.0010     1.0850 h4         1 GJG      -0.052900
     17 H2           1.8980     0.0020     3.3280 ha         1 GJG       0.133000
     18 H3           3.1260    -0.0000     1.1850 ha         1 GJG       0.154000
     19 H4           3.6140     1.6250    -2.6120 hc         1 GJG       0.023950
     20 H5           3.6070     0.0180    -3.3600 hc         1 GJG       0.023950
     21 H6           5.8750    -2.4570    -1.0190 hc         1 GJG       0.027950
     22 H7           5.8820    -0.8500    -0.2720 hc         1 GJG       0.027950
     23 H8          -2.4820    -0.8140     3.0900 hn         1 GJG       0.243133
     24 H9          -2.4780     0.8210     3.0860 hn         1 GJG       0.243133
     25 H10          1.5020     0.0190    -2.0670 hn         1 GJG       0.310800
     26 H11          3.8460     0.5840    -0.3840 h1         1 GJG       0.051700
     27 H12          5.4100     0.9760    -1.5260 hc         1 GJG       0.027950
     28 H13          5.9840     1.2670    -3.2500 hc         1 GJG       0.027950
     29 H14          5.6450    -1.4170    -3.2490 hc         1 GJG       0.025200
     30 H15          7.0980    -0.8290    -2.4220 hc         1 GJG       0.025200
     31 H16          3.6180    -2.0240    -1.9270 hc         1 GJG       0.023950
     32 H17          3.6320    -1.8670    -0.1610 hc         1 GJG       0.023950
     33 C2          -0.8140     0.0030     3.6100 c          1 GJG       0.368700
     34 H93         -2.5320     0.0100     4.5000 hn         1 GJG       0.243133
@<TRIPOS>BOND
     1     1     2 ar  
     2     1     3 ar  
     3     2     5 ar  
     4     2    11 1   
     5     3    10 ar  
     6     3    16 1   
     7     4     5 ar  
     8     4    10 ar  
     9     4    17 1   
    10     5    18 1   
    11     6    12 1   
    12     6    13 1   
    13     6    19 1   
    14     6    20 1   
    15     7    14 1   
    16     7    15 1   
    17     7    21 1   
    18     7    22 1   
    19     8    33 2   
    20     9    23 1   
    21     9    24 1   
    22     9    33 1   
    23     9    34 1   
    24    10    33 1   
    25    11    12 1   
    26    11    25 1   
    27    12    15 1   
    28    12    26 1   
    29    13    14 1   
    30    13    27 1   
    31    13    28 1   
    32    14    29 1   
    33    14    30 1   
    34    15    31 1   
    35    15    32 1   
@<TRIPOS>SUBSTRUCTURE
     1 GJG         1 TEMP              0 ****  ****    0 ROOT
