@<TRIPOS>MOLECULE
GJJ
   64    66     1     0     0
SMALL
bcc


@<TRIPOS>ATOM
      1 C2           0.0000     0.0000     0.0000 ca         1 GJJ       0.611200
      2 C3           1.4050     0.0000     0.0000 ca         1 GJJ      -0.473900
      3 C9          -2.0760     0.1280    -1.2070 ca         1 GJJ      -0.048400
      4 C10         -2.8310    -0.5550    -2.1550 ca         1 GJJ      -0.107500
      5 C11         -4.2030    -0.4360    -2.1620 ca         1 GJJ      -0.044000
      6 C12         -4.8360     0.3730    -1.2130 ca         1 GJJ      -0.135600
      7 C13         -4.0740     1.0580    -0.2620 ca         1 GJJ      -0.044000
      8 C14         -2.7040     0.9350    -0.2610 ca         1 GJJ      -0.107500
      9 C15         -6.3060     0.5040    -1.2170 c          1 GJJ       0.590700
     10 O17         -6.9660    -0.0920    -2.0450 o          1 GJJ      -0.636100
     11 C19         -8.8320     1.9910    -1.6470 c3         1 GJJ      -0.014767
     12 C20         -8.8050     2.3500     0.8250 c3         1 GJJ      -0.014767
     13 C21         -9.0090     0.0370    -0.1000 c3         1 GJJ      -0.014767
     14 C22         -0.3210    -1.0510     4.4030 c3         1 GJJ       0.140800
     15 C24         -2.7470    -0.7620     4.5810 c3         1 GJJ       0.017700
     16 N26         -3.9240    -1.6190     4.4150 ns         1 GJJ      -0.195900
     17 C27          2.1530    -0.0010    -1.2690 c          1 GJJ       0.361700
     18 C30         -4.8260    -1.7270     5.4100 c          1 GJJ       0.590300
     19 C32         -6.0070    -2.5870     5.2420 ce         1 GJJ      -0.260200
     20 C33         -6.8970    -2.6920     6.2250 c2         1 GJJ      -0.031000
     21 N1          -0.6680     0.0060     1.1440 nb         1 GJJ      -0.694000
     22 C4           2.0850     0.0000     1.2270 ca         1 GJJ       0.006000
     23 C5           1.3510     0.0010     2.3810 ca         1 GJJ      -0.265300
     24 C6          -0.0420     0.0070     2.3110 ca         1 GJJ       0.601200
     25 N7          -0.7840     0.0080     3.4810 nh         1 GJJ      -0.424300
     26 N8          -0.6890     0.0000    -1.2000 nu         1 GJJ      -0.229300
     27 N16         -6.9150     1.2850    -0.3020 ns         1 GJJ      -0.184900
     28 C18         -8.3740     1.4150    -0.3060 c3         1 GJJ       0.008400
     29 C23         -1.5600    -1.5690     5.1560 c3         1 GJJ      -0.049400
     30 C25         -2.2120    -0.2920     3.2060 c3         1 GJJ       0.121800
     31 N28          3.4950    -0.1210    -1.2590 nz         1 GJJ       0.214600
     32 O29          1.5580     0.1080    -2.3250 o          1 GJJ      -0.529100
     33 O31         -4.6630    -1.1120     6.4460 o          1 GJJ      -0.642100
     34 H1          -2.3390    -1.1820    -2.8890 ha         1 GJJ       0.121000
     35 H2          -4.7900    -0.9680    -2.9000 ha         1 GJJ       0.126000
     36 H3          -4.5630     1.6850     0.4740 ha         1 GJJ       0.126000
     37 H4          -2.1130     1.4650     0.4750 ha         1 GJJ       0.121000
     38 H5          -8.9070     1.1930    -2.3760 hc         1 GJJ       0.017811
     39 H6          -9.7990     2.4630    -1.5260 hc         1 GJJ       0.017811
     40 H7          -8.1120     2.7260    -1.9890 hc         1 GJJ       0.017811
     41 H8          -9.8850     2.4430     0.8240 hc         1 GJJ       0.017811
     42 H9          -8.3590     3.3250     0.6770 hc         1 GJJ       0.017811
     43 H10         -8.4790     1.9430     1.7740 hc         1 GJJ       0.017811
     44 H11         -8.4080    -0.5370     0.5950 hc         1 GJJ       0.017811
     45 H12         -9.0600    -0.4820    -1.0490 hc         1 GJJ       0.017811
     46 H13        -10.0080     0.1570     0.3010 hc         1 GJJ       0.017811
     47 H14          0.3920    -0.6400     5.1070 h1         1 GJJ       0.025200
     48 H15          0.1320    -1.8580     3.8390 h1         1 GJJ       0.025200
     49 H16         -2.9700     0.0890     5.2140 h1         1 GJJ       0.079700
     50 H17         -4.0630    -2.1170     3.5580 hn         1 GJJ       0.176500
     51 H18         -6.1520    -3.1340     4.3190 ha         1 GJJ       0.106000
     52 H20         -6.7520    -2.1440     7.1480 ha         1 GJJ       0.095000
     53 H21         -7.7680    -3.3250     6.1020 ha         1 GJJ       0.095000
     54 H23          3.1670    -0.0020     1.2600 ha         1 GJJ       0.084000
     55 H24          1.8480     0.0020     3.3430 ha         1 GJJ       0.145000
     56 H25         -0.1940    -0.1240    -2.0610 hn         1 GJJ       0.332800
     57 H26         -6.3680     1.8000     0.3600 hn         1 GJJ       0.175500
     58 H27         -1.6990    -2.6260     4.9650 hc         1 GJJ       0.041200
     59 H28         -1.4590    -1.3810     6.2180 hc         1 GJJ       0.041200
     60 H29         -2.7330     0.6010     2.8800 h1         1 GJJ       0.041200
     61 H30         -2.3000    -1.0830     2.4720 h1         1 GJJ       0.041200
     62 H31          3.8980     0.6730    -0.8030 hn         1 GJJ       0.240800
     63 H32          3.7520    -0.9550    -0.7670 hn         1 GJJ       0.240800
     64 H283         3.8320    -0.1720    -2.2000 hn         1 GJJ       0.240800
@<TRIPOS>BOND
     1     1     2 ar  
     2     1    21 ar  
     3     1    26 1   
     4     2    17 1   
     5     2    22 ar  
     6     3     4 ar  
     7     3     8 ar  
     8     3    26 1   
     9     4     5 ar  
    10     4    34 1   
    11     5     6 ar  
    12     5    35 1   
    13     6     7 ar  
    14     6     9 1   
    15     7     8 ar  
    16     7    36 1   
    17     8    37 1   
    18     9    10 2   
    19     9    27 1   
    20    11    28 1   
    21    11    38 1   
    22    11    39 1   
    23    11    40 1   
    24    12    28 1   
    25    12    41 1   
    26    12    42 1   
    27    12    43 1   
    28    13    28 1   
    29    13    44 1   
    30    13    45 1   
    31    13    46 1   
    32    14    25 1   
    33    14    29 1   
    34    14    47 1   
    35    14    48 1   
    36    15    16 1   
    37    15    29 1   
    38    15    30 1   
    39    15    49 1   
    40    16    18 1   
    41    16    50 1   
    42    17    31 1   
    43    17    32 2   
    44    18    19 1   
    45    18    33 2   
    46    19    20 2   
    47    19    51 1   
    48    20    52 1   
    49    20    53 1   
    50    21    24 ar  
    51    22    23 ar  
    52    22    54 1   
    53    23    24 ar  
    54    23    55 1   
    55    24    25 1   
    56    25    30 1   
    57    26    56 1   
    58    27    28 1   
    59    27    57 1   
    60    29    58 1   
    61    29    59 1   
    62    30    60 1   
    63    30    61 1   
    64    31    62 1   
    65    31    63 1   
    66    31    64 1   
@<TRIPOS>SUBSTRUCTURE
     1 GJJ         1 TEMP              0 ****  ****    0 ROOT
