@<TRIPOS>MOLECULE
molecule
   64    66     1     0     0
SMALL
bcc


@<TRIPOS>ATOM
      1 C2           0.0000     0.0000     0.0000 ca         1 GJJ       0.812200
      2 C3           1.4050     0.0000     0.0000 ca         1 GJJ      -0.450900
      3 C9          -2.0760     0.1280    -1.2070 ca         1 GJJ       0.127600
      4 C10         -2.8310    -0.5550    -2.1550 ca         1 GJJ      -0.142000
      5 C11         -4.2030    -0.4360    -2.1620 ca         1 GJJ      -0.071500
      6 C12         -4.8360     0.3730    -1.2130 ca         1 GJJ      -0.139600
      7 C13         -4.0740     1.0580    -0.2620 ca         1 GJJ      -0.071500
      8 C14         -2.7040     0.9350    -0.2610 ca         1 GJJ      -0.142000
      9 C15         -6.3060     0.5040    -1.2170 c          1 GJJ       0.670700
     10 O17         -6.9660    -0.0920    -2.0450 o          1 GJJ      -0.599100
     11 C19         -8.8320     1.9910    -1.6470 c3         1 GJJ      -0.100433
     12 C20         -8.8050     2.3500     0.8250 c3         1 GJJ      -0.100433
     13 C21         -9.0090     0.0370    -0.1000 c3         1 GJJ      -0.100433
     14 C22         -0.3210    -1.0510     4.4030 c3         1 GJJ       0.150800
     15 C24         -2.7470    -0.7620     4.5810 c3         1 GJJ       0.112700
     16 N26         -3.9240    -1.6190     4.4150 ns         1 GJJ      -0.584900
     17 C27          2.1530    -0.0010    -1.2690 c          1 GJJ       0.518700
     18 C30         -4.8260    -1.7270     5.4100 c          1 GJJ       0.667300
     19 C32         -6.0070    -2.5870     5.2420 ce         1 GJJ      -0.265200
     20 C33         -6.8970    -2.6920     6.2250 c2         1 GJJ      -0.109000
     21 N1          -0.6680     0.0060     1.1440 nb         1 GJJ      -0.794000
     22 C4           2.0850     0.0000     1.2270 ca         1 GJJ      -0.031000
     23 C5           1.3510     0.0010     2.3810 ca         1 GJJ      -0.293300
     24 C6          -0.0420     0.0070     2.3110 ca         1 GJJ       0.726200
     25 N7          -0.7840     0.0080     3.4810 nh         1 GJJ      -0.660300
     26 N8          -0.6890     0.0000    -1.2000 nu         1 GJJ      -0.722300
     27 N16         -6.9150     1.2850    -0.3020 ns         1 GJJ      -0.573900
     28 C18         -8.3740     1.4150    -0.3060 c3         1 GJJ       0.121400
     29 C23         -1.5600    -1.5690     5.1560 c3         1 GJJ      -0.109400
     30 C25         -2.2120    -0.2920     3.2060 c3         1 GJJ       0.141800
     31 N28          3.4950    -0.1210    -1.2590 nz         1 GJJ      -0.670400
     32 O29          1.5580     0.1080    -2.3250 o          1 GJJ      -0.494100
     33 O31         -4.6630    -1.1120     6.4460 o          1 GJJ      -0.605100
     34 H1          -2.3390    -1.1820    -2.8890 ha         1 GJJ       0.146000
     35 H2          -4.7900    -0.9680    -2.9000 ha         1 GJJ       0.155500
     36 H3          -4.5630     1.6850     0.4740 ha         1 GJJ       0.155500
     37 H4          -2.1130     1.4650     0.4750 ha         1 GJJ       0.146000
     38 H5          -8.9070     1.1930    -2.3760 hc         1 GJJ       0.047144
     39 H6          -8.1120     2.7260    -1.9890 hc         1 GJJ       0.047144
     40 H7          -9.7990     2.4630    -1.5260 hc         1 GJJ       0.047144
     41 H8          -8.4790     1.9430     1.7740 hc         1 GJJ       0.047144
     42 H9          -8.3580     3.3250     0.6770 hc         1 GJJ       0.047144
     43 H10         -9.8850     2.4430     0.8240 hc         1 GJJ       0.047144
     44 H11         -9.0600    -0.4820    -1.0490 hc         1 GJJ       0.047144
     45 H12         -8.4080    -0.5370     0.5950 hc         1 GJJ       0.047144
     46 H13        -10.0080     0.1570     0.3010 hc         1 GJJ       0.047144
     47 H14          0.3920    -0.6400     5.1070 h1         1 GJJ       0.058200
     48 H15          0.1320    -1.8580     3.8390 h1         1 GJJ       0.058200
     49 H16         -2.9700     0.0890     5.2140 h1         1 GJJ       0.108700
     50 H17         -4.0630    -2.1170     3.5580 hn         1 GJJ       0.317500
     51 H18         -6.1520    -3.1340     4.3190 ha         1 GJJ       0.128000
     52 H20         -7.7680    -3.3250     6.1020 ha         1 GJJ       0.135500
     53 H21         -6.7520    -2.1440     7.1480 ha         1 GJJ       0.135500
     54 H23          3.1670    -0.0020     1.2600 ha         1 GJJ       0.117000
     55 H24          1.8480     0.0020     3.3430 ha         1 GJJ       0.171000
     56 H25         -0.1940    -0.1240    -2.0610 hn         1 GJJ       0.489800
     57 H26         -6.3680     1.8000     0.3600 hn         1 GJJ       0.310500
     58 H27         -1.6990    -2.6260     4.9650 hc         1 GJJ       0.075700
     59 H28         -1.4590    -1.3810     6.2180 hc         1 GJJ       0.075700
     60 H29         -2.7330     0.6010     2.8800 h1         1 GJJ       0.074200
     61 H30         -2.3000    -1.0830     2.4720 h1         1 GJJ       0.074200
     62 H31          3.7520    -0.9550    -0.7670 hn         1 GJJ       0.474467
     63 H32          3.8980     0.6730    -0.8030 hn         1 GJJ       0.474467
     64 H283         3.8320    -0.1720    -2.2000 hn         1 GJJ       0.474467
@<TRIPOS>BOND
     1    14    29 1
     2    14    25 1
     3    29    15 1
     4    23    22 ar
     5    23    24 ar
     6    22     2 ar
     7    25    24 1
     8    25    30 1
     9    24    21 ar
    10    15    16 1
    11    15    30 1
    12    16    18 1
    13    31    17 1
    14     2    17 1
    15     2     1 ar
    16    19    18 1
    17    19    20 2
    18    18    33 2
    19    17    32 2
    20    21     1 ar
    21     1    26 1
    22    26     3 1
    23     8     3 ar
    24     8     7 ar
    25     3     4 ar
    26     7     6 ar
    27     4     5 ar
    28     6     5 ar
    29     6     9 1
    30    10     9 2
    31     9    27 1
    32    27    28 1
    33    13    28 1
    34    28    11 1
    35    28    12 1
    36     4    34 1
    37     5    35 1
    38     7    36 1
    39     8    37 1
    40    11    38 1
    41    11    39 1
    42    11    40 1
    43    12    41 1
    44    12    42 1
    45    12    43 1
    46    13    44 1
    47    13    45 1
    48    13    46 1
    49    14    47 1
    50    14    48 1
    51    15    49 1
    52    16    50 1
    53    19    51 1
    54    20    52 1
    55    20    53 1
    56    22    54 1
    57    23    55 1
    58    26    56 1
    59    27    57 1
    60    29    58 1
    61    29    59 1
    62    30    60 1
    63    30    61 1
    64    31    62 1
    65    31    63 1
    66    64    31 1
@<TRIPOS>SUBSTRUCTURE
     1 GJJ         1 TEMP              0 ****  ****    0 ROOT
