@<TRIPOS>MOLECULE
molecule
   46    48     1     0     0
SMALL
bcc


@<TRIPOS>ATOM
      1 N1           0.0000     0.0000     0.0000 nb         1 GJV      -0.755000
      2 C2           1.3210     0.0000     0.0000 ca         1 GJV       0.724900
      3 N3           2.0280     0.0000     1.1100 nb         1 GJV      -0.750000
      4 C4           1.4270     0.0010     2.2960 ca         1 GJV       0.456800
      5 C5           0.0230     0.0010     2.3500 ca         1 GJV      -0.168200
      6 C6          -0.6880     0.0010     1.1370 ca         1 GJV       0.792200
      7 N6          -2.0720     0.0010     1.1270 nv         1 GJV      -1.072500
      8 N7          -0.3270     0.0020     3.6590 nc         1 GJV      -0.554100
      9 C8           0.7470     0.0020     4.3930 cd         1 GJV       0.407700
     10 N9           1.8550     0.0020     3.6000 na         1 GJV      -0.268000
     11 N10          3.6840    -0.5160    12.4600 nz         1 GJV      -0.779600
     12 N11          3.4360    -2.8080    12.5380 nv         1 GJV      -0.421100
     13 C1'          3.2480     0.0020     4.0540 c3         1 GJV       0.271800
     14 C2'          3.8060     1.4460     4.1020 c3         1 GJV       0.105100
     15 O2'          4.3260     1.8350     2.8290 oh         1 GJV      -0.539800
     16 C3'          4.9420     1.3200     5.1470 c3         1 GJV       0.089100
     17 O3'          6.2040     1.1560     4.4960 oh         1 GJV      -0.554800
     18 C4'          4.5800     0.0540     5.9480 c3         1 GJV       0.123100
     19 O4'          3.3350    -0.4390     5.4260 os         1 GJV      -0.439600
     20 C5'          4.4260     0.4020     7.4290 c3         1 GJV      -0.077400
     21 C6'          4.1900    -0.8790     8.2320 c3         1 GJV      -0.092400
     22 C7'          4.0350    -0.5310     9.7140 c3         1 GJV      -0.021700
     23 N8'          3.8090    -1.7570    10.4830 nu         1 GJV      -0.279200
     24 C9'          3.6410    -1.6930    11.8390 c2         1 GJV       0.461700
     25 H2           1.8420    -0.0010    -0.9500 h5         1 GJV       0.077100
     26 H1N6        -2.5720     0.8680     1.1160 hn         1 GJV       0.451800
     27 H2N6        -2.5720    -0.8660     1.1160 hn         1 GJV       0.451800
     28 H8           0.7590     0.0010     5.4770 h5         1 GJV       0.062800
     29 H10          4.5760    -0.0890    12.3070 hn         1 GJV       0.517133
     30 H20'         3.5440    -0.6510    13.4420 hn         1 GJV       0.517133
     31 H11          3.4050    -3.6930    12.0720 hn         1 GJV       0.370700
     32 H21          3.3140    -2.7610    13.5300 hn         1 GJV       0.370700
     33 H1'          3.8630    -0.6220     3.4170 h2         1 GJV       0.125700
     34 H2'          3.0470     2.1390     4.4440 h1         1 GJV       0.062700
     35 HO2'         4.2090     2.7630     2.7110 ho         1 GJV       0.419000
     36 H3'          4.9540     2.1860     5.7960 h1         1 GJV       0.043700
     37 HO3'         6.8240     1.7700     4.8530 ho         1 GJV       0.413000
     38 H4'          5.3530    -0.6940     5.8190 h1         1 GJV       0.085700
     39 H15'         3.5820     1.0690     7.5570 hc         1 GJV       0.062700
     40 H25'         5.3270     0.8890     7.7820 hc         1 GJV       0.062700
     41 H16'         5.0330    -1.5460     8.1040 hc         1 GJV       0.091200
     42 H26'         3.2880    -1.3650     7.8800 hc         1 GJV       0.091200
     43 H17'         4.9370    -0.0440    10.0660 h1         1 GJV       0.083700
     44 H27'         3.1910     0.1360     9.8420 h1         1 GJV       0.083700
     45 HN8'         3.7750    -2.6420    10.0160 hn         1 GJV       0.379700
     46 H103         2.9640     0.0790    12.0990 hn         1 GJV       0.517133
@<TRIPOS>BOND
     1     7     6 1
     2     1     6 ar
     3     1     2 ar
     4     6     5 ar
     5     2     3 ar
     6     5     4 ar
     7     5     8 1
     8     3     4 ar
     9     4    10 1
    10     8     9 2
    11     9    10 1
    12    10    13 1
    13    19    13 1
    14    19    18 1
    15    13    14 1
    16    11    24 1
    17    22    23 1
    18    22    21 1
    19    20    18 1
    20    20    21 1
    21    24    23 1
    22    24    12 2
    23    18    16 1
    24    14    16 1
    25    14    15 1
    26    16    17 1
    27     2    25 1
    28     7    26 1
    29     7    27 1
    30     9    28 1
    31    11    29 1
    32    11    30 1
    33    12    31 1
    34    12    32 1
    35    13    33 1
    36    14    34 1
    37    15    35 1
    38    16    36 1
    39    17    37 1
    40    18    38 1
    41    20    39 1
    42    20    40 1
    43    21    41 1
    44    21    42 1
    45    22    43 1
    46    22    44 1
    47    23    45 1
    48    46    11 1
@<TRIPOS>SUBSTRUCTURE
     1 GJV         1 TEMP              0 ****  ****    0 ROOT
