@<TRIPOS>MOLECULE
molecule
   37    40     1     0     0
SMALL
bcc


@<TRIPOS>ATOM
      1 C2           0.0000     0.0000     0.0000 cc         1 GJW      -0.125300
      2 C4           0.6570     0.0000     2.1200 cc         1 GJW      -0.198900
      3 C6          -1.7250    -0.0000     1.8350 ca         1 GJW      -0.034200
      4 C11         -4.1060     0.0000     1.5430 ca         1 GJW      -0.116000
      5 C12         -4.2770     0.0010     2.9160 ca         1 GJW      -0.049300
      6 N22         -6.1180    -1.3830     3.6900 n3         1 GJW      -0.699600
      7 C23         -7.5560    -1.4290     4.0340 c3         1 GJW       0.143300
      8 C26         -5.4090    -2.0220     4.8270 c3         1 GJW       0.143300
      9 C1           1.3550     0.0000     0.0000 cd         1 GJW      -0.210000
     10 N3          -0.4400     0.0000     1.2830 na         1 GJW       0.053800
     11 C5           1.7860     0.0000     1.3300 cd         1 GJW      -0.106000
     12 C7          -1.8970     0.0000     3.2190 ca         1 GJW       0.062600
     13 N8          -0.7930     0.0010     4.0720 ns         1 GJW      -0.455100
     14 C9           0.4580    -0.0000     3.5700 c          1 GJW       0.740100
     15 C10         -2.8360     0.0000     1.0010 ca         1 GJW      -0.116000
     16 C13         -3.1790     0.0010     3.7530 ca         1 GJW      -0.157000
     17 O20          1.4190    -0.0000     4.3200 o          1 GJW      -0.621500
     18 C21         -5.6660     0.0020     3.5000 c3         1 GJW       0.198100
     19 C24         -7.7510    -2.6100     5.0020 c3         1 GJW      -0.087900
     20 C25         -6.3380    -3.2030     5.2060 c3         1 GJW      -0.087900
     21 H2          -0.6290    -0.0000    -0.8820 h4         1 GJW       0.169000
     22 H11         -4.9710     0.0010     0.8910 ha         1 GJW       0.145000
     23 H23         -8.1440    -1.5860     3.1380 h1         1 GJW       0.042450
     24 H23A        -7.8480    -0.5050     4.5180 h1         1 GJW       0.042450
     25 H26         -5.3160    -1.3300     5.6550 h1         1 GJW       0.042450
     26 H26A        -4.4380    -2.3870     4.5140 h1         1 GJW       0.042450
     27 H1           1.9920    -0.0420    -0.8750 ha         1 GJW       0.158000
     28 H5           2.8130     0.0000     1.6750 ha         1 GJW       0.167000
     29 HN8         -0.9310     0.0040     5.0630 hn         1 GJW       0.343500
     30 H10         -2.7060    -0.0000    -0.0740 ha         1 GJW       0.143000
     31 H13         -3.3180     0.0010     4.8280 ha         1 GJW       0.140000
     32 H21         -5.6560     0.5120     4.4550 h1         1 GJW       0.044200
     33 H21A        -6.3420     0.5130     2.8250 h1         1 GJW       0.044200
     34 H24         -8.4080    -3.3510     4.5620 hc         1 GJW       0.050450
     35 H24A        -8.1490    -2.2590     5.9460 hc         1 GJW       0.050450
     36 H25         -6.1900    -3.4890     6.2410 hc         1 GJW       0.050450
     37 H25A        -6.1770    -4.0440     4.5420 hc         1 GJW       0.050450
@<TRIPOS>BOND
     1     1     9 2
     2     1    10 1
     3     2    10 1
     4     2    11 2
     5     2    14 1
     6     3    10 1
     7     3    12 ar
     8     3    15 ar
     9     4     5 ar
    10     4    15 ar
    11     5    16 ar
    12     5    18 1
    13     6     7 1
    14     6     8 1
    15     6    18 1
    16     7    19 1
    17     8    20 1
    18     9    11 1
    19    12    13 1
    20    12    16 ar
    21    13    14 1
    22    14    17 2
    23    19    20 1
    24     1    21 1
    25     4    22 1
    26     7    23 1
    27     7    24 1
    28     8    25 1
    29     8    26 1
    30     9    27 1
    31    11    28 1
    32    13    29 1
    33    15    30 1
    34    16    31 1
    35    18    32 1
    36    18    33 1
    37    19    34 1
    38    19    35 1
    39    20    36 1
    40    20    37 1
@<TRIPOS>SUBSTRUCTURE
     1 GJW         1 TEMP              0 ****  ****    0 ROOT
