@<TRIPOS>MOLECULE
GJZ
   22    23     1     0     0
SMALL
bcc


@<TRIPOS>ATOM
      1 N1           0.0000     0.0000     0.0000 nz         1 GJZ       0.152400
      2 C2           2.1770     0.0000     1.3560 cx         1 GJZ       0.055600
      3 C3           1.4690     0.0000     0.0000 cx         1 GJZ      -0.256500
      4 C4           2.1760    -1.2640     0.4930 cx         1 GJZ      -0.014400
      5 C5           3.4690     0.7660     1.4670 ca         1 GJZ      -0.125300
      6 C6           3.5790     1.8090     2.3680 ca         1 GJZ      -0.083000
      7 C7           4.5460     0.4220     0.6720 ca         1 GJZ      -0.083000
      8 C8           4.7650     2.5120     2.4690 ca         1 GJZ      -0.081000
      9 C9           5.7320     1.1260     0.7730 ca         1 GJZ      -0.081000
     10 C10          5.8400     2.1720     1.6710 ca         1 GJZ      -0.059000
     11 HN1         -0.3340    -0.5620     0.7580 hn         1 GJZ       0.215467
     12 HN1A        -0.3340     0.9370     0.1070 hn         1 GJZ       0.215467
     13 H3           1.9920     0.5350    -0.7840 hx         1 GJZ       0.143700
     14 H4           1.5260    -2.0610     0.8330 hc         1 GJZ       0.077200
     15 H4A          3.1140    -1.4960     0.0040 hc         1 GJZ       0.077200
     16 H6           2.7360     2.0750     2.9940 ha         1 GJZ       0.105500
     17 H7           4.4610    -0.3970    -0.0320 ha         1 GJZ       0.105500
     18 H8           4.8510     3.3300     3.1740 ha         1 GJZ       0.119500
     19 H9           6.5760     0.8590     0.1490 ha         1 GJZ       0.119500
     20 H10          6.7700     2.7230     1.7500 ha         1 GJZ       0.120000
     21 H13         -0.3340    -0.3850    -0.8620 hn         1 GJZ       0.215467
     22 H2           1.5140    -0.0360     2.2130 hc         1 GJZ       0.063700
@<TRIPOS>BOND
     1     1     3 1   
     2     1    11 1   
     3     1    12 1   
     4     1    21 1   
     5     2     3 1   
     6     2     4 1   
     7     2     5 1   
     8     2    22 1   
     9     3     4 1   
    10     3    13 1   
    11     4    14 1   
    12     4    15 1   
    13     5     6 ar  
    14     5     7 ar  
    15     6     8 ar  
    16     6    16 1   
    17     7     9 ar  
    18     7    17 1   
    19     8    10 ar  
    20     8    18 1   
    21     9    10 ar  
    22     9    19 1   
    23    10    20 1   
@<TRIPOS>SUBSTRUCTURE
     1 GJZ         1 TEMP              0 ****  ****    0 ROOT
