@<TRIPOS>MOLECULE
molecule
   22    23     1     0     0
SMALL
bcc


@<TRIPOS>ATOM
      1 N1           0.0000     0.0000     0.0000 nz         1 GJZ      -0.773600
      2 C2           2.1770     0.0000     1.3560 cx         1 GJZ      -0.014400
      3 C3           1.4690     0.0000     0.0000 cx         1 GJZ      -0.045500
      4 C4           2.1760    -1.2640     0.4930 cx         1 GJZ      -0.093400
      5 C5           3.4690     0.7660     1.4670 ca         1 GJZ      -0.108300
      6 C6           3.5790     1.8090     2.3680 ca         1 GJZ      -0.110500
      7 C7           4.5460     0.4220     0.6720 ca         1 GJZ      -0.110500
      8 C8           4.7650     2.5120     2.4690 ca         1 GJZ      -0.111500
      9 C9           5.7320     1.1260     0.7730 ca         1 GJZ      -0.111500
     10 C10          5.8400     2.1720     1.6710 ca         1 GJZ      -0.092000
     11 HN1         -0.3340    -0.5620     0.7580 hn         1 GJZ       0.455800
     12 HN1A        -0.3340     0.9370     0.1070 hn         1 GJZ       0.455800
     13 H3           1.9920     0.5350    -0.7840 hx         1 GJZ       0.165700
     14 H4           1.5260    -2.0610     0.8330 hc         1 GJZ       0.112700
     15 H4A          3.1140    -1.4960     0.0040 hc         1 GJZ       0.112700
     16 H6           2.7360     2.0750     2.9940 ha         1 GJZ       0.129500
     17 H7           4.4610    -0.3970    -0.0320 ha         1 GJZ       0.129500
     18 H8           4.8510     3.3300     3.1740 ha         1 GJZ       0.151500
     19 H9           6.5760     0.8590     0.1490 ha         1 GJZ       0.151500
     20 H10          6.7700     2.7230     1.7500 ha         1 GJZ       0.153000
     21 H13         -0.3340    -0.3850    -0.8620 hn         1 GJZ       0.455800
     22 H2           1.5140    -0.0360     2.2130 hc         1 GJZ       0.097700
@<TRIPOS>BOND
     1     1     3 1
     2     2     3 1
     3     2     4 1
     4     2     5 1
     5     3     4 1
     6     5     6 ar
     7     5     7 ar
     8     6     8 ar
     9     7     9 ar
    10     8    10 ar
    11     9    10 ar
    12     1    11 1
    13     1    12 1
    14     2    22 1
    15     3    13 1
    16     4    14 1
    17     4    15 1
    18     6    16 1
    19     7    17 1
    20     8    18 1
    21     9    19 1
    22    10    20 1
    23    21     1 1
@<TRIPOS>SUBSTRUCTURE
     1 GJZ         1 TEMP              0 ****  ****    0 ROOT
