@<TRIPOS>MOLECULE
molecule
   35    36     1     0     0
SMALL
bcc


@<TRIPOS>ATOM
      1 C01          0.0000     0.0000     0.0000 ca         1 GK0      -0.126000
      2 C03          1.3980     0.0000     0.0000 ca         1 GK0      -0.126600
      3 C04          2.0940     0.0000     1.2120 ca         1 GK0      -0.126000
      4 C06          1.3990    -0.0000     2.4070 ca         1 GK0       0.091600
      5 O07          2.0760     0.0000     3.5860 oh         1 GK0      -0.503600
      6 C09          0.0060     0.0010     2.4030 ca         1 GK0       0.095100
      7 O10         -0.6740     0.0020     3.5800 oh         1 GK0      -0.497100
      8 C12         -0.6900    -0.0000     1.1980 ca         1 GK0       0.091600
      9 O13         -2.0500     0.0010     1.1990 oh         1 GK0      -0.503600
     10 C15          2.1370    -0.0000    -1.2770 c          1 GK0       0.692700
     11 O16          1.5290    -0.0000    -2.3310 o          1 GK0      -0.556100
     12 N17          3.4850     0.0000    -1.2760 ns         1 GK0      -0.352900
     13 N18          4.1860    -0.0010    -2.4890 n2         1 GK0      -0.406300
     14 C19          5.4840    -0.0010    -2.4870 ce         1 GK0       0.387800
     15 C22          7.6140    -0.0030    -6.1670 ca         1 GK0       0.086100
     16 O23          8.2960    -0.0030    -7.3440 oh         1 GK0      -0.506100
     17 C25          8.3100    -0.0020    -4.9620 ca         1 GK0       0.092600
     18 O26          9.6700    -0.0020    -4.9620 oh         1 GK0      -0.507600
     19 C28          7.6200    -0.0010    -3.7640 ca         1 GK0      -0.140000
     20 C30          6.2230    -0.0010    -3.7630 ca         1 GK0      -0.108900
     21 C31          5.5270    -0.0020    -4.9750 ca         1 GK0      -0.140000
     22 C33          6.2220     0.0020    -6.1700 ca         1 GK0       0.092600
     23 O34          5.5460     0.0010    -7.3490 oh         1 GK0      -0.507600
     24 H1          -0.5420    -0.0000    -0.9380 ha         1 GK0       0.154000
     25 H2           3.1770     0.0000     1.2140 ha         1 GK0       0.154000
     26 H3           2.3990    -0.8680     3.7630 ho         1 GK0       0.425500
     27 H4          -0.7970     0.8900     3.8710 ho         1 GK0       0.427000
     28 H5          -2.3640     0.8210     0.8540 ho         1 GK0       0.425500
     29 H6           3.9840     0.0180    -0.4090 hn         1 GK0       0.301500
     30 H7           6.0250    -0.0000    -1.5480 h4         1 GK0      -0.010200
     31 H8           8.4520    -0.8920    -7.6170 ho         1 GK0       0.432000
     32 H9           9.9840     0.8500    -4.7080 ho         1 GK0       0.426500
     33 H10          8.1620    -0.0010    -2.8260 ha         1 GK0       0.158000
     34 H11          4.4430     0.0010    -4.9770 ha         1 GK0       0.158000
     35 H12          5.1680     0.8530    -7.4950 ho         1 GK0       0.426500
@<TRIPOS>BOND
     1    23    22 1
     2    16    15 1
     3    22    15 ar
     4    22    21 ar
     5    15    17 ar
     6    21    20 ar
     7    17    18 1
     8    17    19 ar
     9    20    19 ar
    10    20    14 1
    11    13    12 1
    12    13    14 2
    13    12    10 1
    14    10    11 2
    15    10     2 1
    16     1     2 ar
    17     1     8 ar
    18     9     8 1
    19     2     3 ar
    20     8     6 ar
    21     3     4 ar
    22     6     4 ar
    23     6     7 1
    24     4     5 1
    25     1    24 1
    26     3    25 1
    27     5    26 1
    28     7    27 1
    29     9    28 1
    30    12    29 1
    31    14    30 1
    32    16    31 1
    33    18    32 1
    34    19    33 1
    35    21    34 1
    36    23    35 1
@<TRIPOS>SUBSTRUCTURE
     1 GK0         1 TEMP              0 ****  ****    0 ROOT
