@<TRIPOS>MOLECULE
molecule
   41    44     1     0     0
SMALL
bcc


@<TRIPOS>ATOM
      1 O2           0.0000     0.0000     0.0000 o          1 GK1      -0.514100
      2 C20          1.2130     0.0000     0.0000 c          1 GK1       0.510400
      3 C19          1.9450     0.0000     1.2680 cc         1 GK1       0.338900
      4 S            1.2090    -0.0070     2.8670 ss         1 GK1      -0.083300
      5 C18          2.7560    -0.0020     3.5960 cc         1 GK1      -0.205400
      6 N3           3.2450    -0.0000     1.3890 nd         1 GK1      -0.628000
      7 C17          3.7090     0.0040     2.6160 cd         1 GK1       0.410800
      8 C13          5.1620     0.0100     2.9180 ca         1 GK1      -0.115500
      9 C12          6.0760     0.0170     1.8810 ca         1 GK1      -0.130300
     10 C14          5.5930     0.0150     4.2530 ca         1 GK1      -0.121000
     11 C15          6.9200     0.0220     4.5540 ca         1 GK1      -0.108000
     12 C16          7.8720     0.0230     3.5220 ca         1 GK1      -0.179300
     13 C11          7.4490     0.0230     2.1710 ca         1 GK1       0.434600
     14 N2           8.3590     0.0300     1.1870 nb         1 GK1      -0.698000
     15 C10          9.6470     0.0360     1.4380 ca         1 GK1       0.454200
     16 C9          10.1400     0.0360     2.7350 ca         1 GK1      -0.302300
     17 C8           9.2580     0.0290     3.8060 ca         1 GK1       0.202600
     18 N1           9.7200     0.0340     5.1130 nu         1 GK1      -0.674000
     19 C7          10.7940    -0.7830     5.4780 ca         1 GK1       0.198600
     20 C2          11.3330    -0.6950     6.7560 ca         1 GK1      -0.158300
     21 C1          10.7600     0.2840     7.7490 c3         1 GK1      -0.043800
     22 C6          11.3180    -1.6890     4.5660 ca         1 GK1      -0.213000
     23 C5          12.3820    -2.4980     4.9320 ca         1 GK1       0.144100
     24 O1          12.8990    -3.3860     4.0420 oh         1 GK1      -0.518100
     25 C4          12.9200    -2.4010     6.2080 ca         1 GK1      -0.207000
     26 C3          12.3940    -1.5020     7.1160 ca         1 GK1      -0.071000
     27 H20          1.7550     0.0050    -0.9380 h4         1 GK1       0.036200
     28 H18          2.9500    -0.0020     4.6620 h4         1 GK1       0.187000
     29 H12          5.7380    -0.1140     0.8610 ha         1 GK1       0.172000
     30 H14          4.8630     0.0150     5.0530 ha         1 GK1       0.130000
     31 H15          7.2420     0.0260     5.5880 ha         1 GK1       0.131000
     32 H10         10.3450     0.0410     0.6100 h4         1 GK1       0.027100
     33 H9          11.2090     0.0400     2.9110 ha         1 GK1       0.158000
     34 H1           9.2970     0.6360     5.7910 hn         1 GK1       0.455800
     35 H11         11.3190     0.2270     8.6750 hc         1 GK1       0.041700
     36 H12A         9.7220     0.0410     7.9380 hc         1 GK1       0.041700
     37 H13         10.8290     1.2880     7.3470 hc         1 GK1       0.041700
     38 H6          10.8450    -1.8200     3.6000 ha         1 GK1       0.160000
     39 H1A         12.6860    -4.2630     4.3130 ho         1 GK1       0.422000
     40 H4          13.7520    -3.0330     6.4940 ha         1 GK1       0.138000
     41 H3          12.8140    -1.4310     8.1110 ha         1 GK1       0.135000
@<TRIPOS>BOND
     1     4     3 1
     2     4     5 1
     3     1     2 2
     4     2     3 1
     5     3     6 2
     6     5     7 2
     7     6     7 1
     8     7     8 1
     9    10     8 ar
    10    10    11 ar
    11     8     9 ar
    12    11    12 ar
    13     9    13 ar
    14    21    20 1
    15    12    13 ar
    16    12    17 ar
    17    13    14 ar
    18    18    17 1
    19    18    19 1
    20    17    16 ar
    21    20    19 ar
    22    20    26 ar
    23    14    15 ar
    24    19    22 ar
    25    26    25 ar
    26    16    15 ar
    27    22    23 ar
    28    25    23 ar
    29    23    24 1
    30     2    27 1
    31     5    28 1
    32     9    29 1
    33    10    30 1
    34    11    31 1
    35    15    32 1
    36    16    33 1
    37    18    34 1
    38    21    35 1
    39    21    36 1
    40    21    37 1
    41    22    38 1
    42    24    39 1
    43    25    40 1
    44    26    41 1
@<TRIPOS>SUBSTRUCTURE
     1 GK1         1 TEMP              0 ****  ****    0 ROOT
