@<TRIPOS>MOLECULE
GK1
   41    44     1     0     0
SMALL
bcc


@<TRIPOS>ATOM
      1 O2           0.0000     0.0000     0.0000 o          1 GK1      -0.543100
      2 C20          1.2130     0.0000     0.0000 c          1 GK1       0.601400
      3 C19          1.9450     0.0000     1.2680 cc         1 GK1       0.320900
      4 S            1.2090    -0.0070     2.8670 ss         1 GK1      -0.216300
      5 C18          2.7560    -0.0020     3.5960 cc         1 GK1      -0.120400
      6 N3           3.2450    -0.0000     1.3890 nd         1 GK1      -0.496000
      7 C17          3.7090     0.0040     2.6160 cd         1 GK1       0.366800
      8 C13          5.1620     0.0100     2.9180 ca         1 GK1      -0.128500
      9 C12          6.0760     0.0170     1.8810 ca         1 GK1      -0.107300
     10 C14          5.5930     0.0150     4.2530 ca         1 GK1      -0.094000
     11 C15          6.9200     0.0220     4.5540 ca         1 GK1      -0.087000
     12 C16          7.8720     0.0230     3.5220 ca         1 GK1      -0.169300
     13 C11          7.4490     0.0230     2.1710 ca         1 GK1       0.392600
     14 N2           8.3590     0.0300     1.1870 nb         1 GK1      -0.590000
     15 C10          9.6470     0.0360     1.4380 ca         1 GK1       0.440200
     16 C9          10.1400     0.0360     2.7350 ca         1 GK1      -0.277300
     17 C8           9.2580     0.0290     3.8060 ca         1 GK1       0.049600
     18 N1           9.7200     0.0340     5.1130 nu         1 GK1      -0.218000
     19 C7          10.7940    -0.7830     5.4780 ca         1 GK1       0.053600
     20 C2          11.3330    -0.6950     6.7560 ca         1 GK1      -0.175300
     21 C1          10.7600     0.2840     7.7490 c3         1 GK1       0.071200
     22 C6          11.3180    -1.6890     4.5660 ca         1 GK1      -0.216000
     23 C5          12.3820    -2.4980     4.9320 ca         1 GK1       0.168100
     24 O1          12.8990    -3.3860     4.0420 oh         1 GK1      -0.499100
     25 C4          12.9200    -2.4010     6.2080 ca         1 GK1      -0.195000
     26 C3          12.3940    -1.5020     7.1160 ca         1 GK1      -0.033000
     27 H20          1.7550     0.0050    -0.9380 h4         1 GK1      -0.013800
     28 H18          2.9500    -0.0020     4.6620 h4         1 GK1       0.167000
     29 H12          5.7380    -0.1140     0.8610 ha         1 GK1       0.137000
     30 H14          4.8630     0.0150     5.0530 ha         1 GK1       0.106000
     31 H15          7.2420     0.0260     5.5880 ha         1 GK1       0.104000
     32 H10         10.3450     0.0410     0.6100 h4         1 GK1      -0.019900
     33 H9          11.2090     0.0400     2.9110 ha         1 GK1       0.140000
     34 H1           9.2970     0.6360     5.7910 hn         1 GK1       0.296800
     35 H11         11.3190     0.2270     8.6750 hc         1 GK1       0.006033
     36 H12A         9.7220     0.0410     7.9380 hc         1 GK1       0.006033
     37 H13         10.8290     1.2880     7.3470 hc         1 GK1       0.006033
     38 H6          10.8450    -1.8200     3.6000 ha         1 GK1       0.145000
     39 H1A         12.6860    -4.2630     4.3130 ho         1 GK1       0.404000
     40 H4          13.7520    -3.0330     6.4940 ha         1 GK1       0.114000
     41 H3          12.8140    -1.4310     8.1110 ha         1 GK1       0.105000
@<TRIPOS>BOND
     1     1     2 2   
     2     2     3 1   
     3     2    27 1   
     4     3     4 1   
     5     3     6 2   
     6     4     5 1   
     7     5     7 2   
     8     5    28 1   
     9     6     7 1   
    10     7     8 1   
    11     8     9 ar  
    12     8    10 ar  
    13     9    13 ar  
    14     9    29 1   
    15    10    11 ar  
    16    10    30 1   
    17    11    12 ar  
    18    11    31 1   
    19    12    13 ar  
    20    12    17 ar  
    21    13    14 ar  
    22    14    15 ar  
    23    15    16 ar  
    24    15    32 1   
    25    16    17 ar  
    26    16    33 1   
    27    17    18 1   
    28    18    19 1   
    29    18    34 1   
    30    19    20 ar  
    31    19    22 ar  
    32    20    21 1   
    33    20    26 ar  
    34    21    35 1   
    35    21    36 1   
    36    21    37 1   
    37    22    23 ar  
    38    22    38 1   
    39    23    24 1   
    40    23    25 ar  
    41    24    39 1   
    42    25    26 ar  
    43    25    40 1   
    44    26    41 1   
@<TRIPOS>SUBSTRUCTURE
     1 GK1         1 TEMP              0 ****  ****    0 ROOT
