@<TRIPOS>MOLECULE
GK3
   48    51     1     0     0
SMALL
bcc


@<TRIPOS>ATOM
      1 N5         -0.5590   -0.0590   -2.5460 n1        1 GK3     -0.359800
      2 C5         -0.1570   -0.1090   -1.4550 cg        1 GK3      0.234800
      3 C18         0.3400   -0.1720   -0.1230 ca        1 GK3      0.010000
      4 C2          1.7210   -0.2520    0.0970 ca        1 GK3     -0.121000
      5 C29         2.1960   -0.3110    1.4050 ca        1 GK3     -0.107000
      6 C19         1.3190   -0.2940    2.4830 ca        1 GK3     -0.167000
      7 C22        -0.5620   -0.1510    0.9470 ca        1 GK3     -0.121000
      8 C15        -0.0800   -0.2130    2.2710 ca        1 GK3      0.070600
      9 N3         -0.9210   -0.1850    3.3940 n         1 GK3     -0.471100
     10 C3         -2.3090   -0.2700    3.4140 c         1 GK3      0.681700
     11 O1         -2.9940   -0.3910    2.3820 o         1 GK3     -0.576100
     12 C25        -2.9440   -0.2320    4.7650 ca        1 GK3     -0.147600
     13 C9         -2.5050    0.6370    5.7680 ca        1 GK3     -0.090500
     14 C10        -4.0360   -1.0750    5.0010 ca        1 GK3     -0.090500
     15 C16        -4.6670   -1.0670    6.2420 ca        1 GK3     -0.125000
     16 C13        -4.2240   -0.2090    7.2580 cp        1 GK3     -0.013000
     17 C27        -3.1440    0.6500    7.0060 ca        1 GK3     -0.125000
     18 C28        -4.8930   -0.1720    8.5600 cp        1 GK3     -0.058000
     19 C14        -5.3000    1.0750    9.0570 ca        1 GK3     -0.067000
     20 C17        -5.9490    1.1680   10.2930 ca        1 GK3     -0.142500
     21 C12        -6.3600    2.4620   10.7920 cc        1 GK3      0.512900
     22 O2         -7.0840    2.5220   11.9980 os        1 GK3     -0.394800
     23 C7         -7.3120    3.8970   12.1810 cc        1 GK3      0.458700
     24 C21        -8.0610    4.3120   13.3750 c3        1 GK3     -0.124400
     25 N4         -6.7570    4.5750   11.1550 nd        1 GK3     -0.347000
     26 N7         -6.1870    3.7200   10.3240 nd        1 GK3     -0.345000
     27 C20        -6.1910    0.0070   11.0430 ca        1 GK3     -0.084000
     28 C26        -5.7800   -1.2250   10.5540 ca        1 GK3     -0.142000
     29 C23        -5.1280   -1.3350    9.3160 ca        1 GK3     -0.033300
     30 C1         -4.7070   -2.6770    8.8510 c3        1 GK3     -0.064800
     31 H2          2.4200   -0.2670   -0.7520 ha        1 GK3      0.147000
     32 H29         3.2800   -0.3740    1.5890 ha        1 GK3      0.140000
     33 H19         1.7280   -0.3440    3.5040 ha        1 GK3      0.134000
     34 H22        -1.6440   -0.0870    0.7390 ha        1 GK3      0.186000
     35 HN3        -0.4570   -0.1590    4.2760 hn        1 GK3      0.321500
     36 H9         -1.6710    1.3330    5.5870 ha        1 GK3      0.148500
     37 H10        -4.3970   -1.7320    4.1930 ha        1 GK3      0.148500
     38 H16        -5.5270   -1.7310    6.4230 ha        1 GK3      0.145500
     39 H27        -2.8020    1.3400    7.7930 ha        1 GK3      0.145500
     40 H14        -5.1110    1.9830    8.4610 ha        1 GK3      0.163000
     41 H21        -8.3540    3.4170   13.9760 hc        1 GK3      0.074367
     42 H21A       -7.4270    4.9870   14.0020 hc        1 GK3      0.074367
     43 H21B       -8.9830    4.8680   13.0660 hc        1 GK3      0.074367
     44 H20        -6.7050    0.0800   12.0150 ha        1 GK3      0.150000
     45 H26        -5.9650   -2.1350   11.1460 ha        1 GK3      0.141000
     46 H1         -3.8330   -2.6110    8.1570 hc        1 GK3      0.052700
     47 H1A        -4.4220   -3.3240    9.7180 hc        1 GK3      0.052700
     48 H1B        -5.5500   -3.1740    8.3080 hc        1 GK3      0.052700
@<TRIPOS>BOND
     1    1    2 3   
     2    2    3 1   
     3    3    4 ar  
     4    3    7 ar  
     5    4    5 ar  
     6    4   31 1   
     7    5    6 ar  
     8    5   32 1   
     9    6    8 ar  
    10    6   33 1   
    11    7    8 ar  
    12    7   34 1   
    13    8    9 1   
    14    9   10 1   
    15    9   35 1   
    16   10   11 2   
    17   10   12 1   
    18   12   13 ar  
    19   12   14 ar  
    20   13   17 ar  
    21   13   36 1   
    22   14   15 ar  
    23   14   37 1   
    24   15   16 ar  
    25   15   38 1   
    26   16   17 ar  
    27   16   18 1   
    28   17   39 1   
    29   18   19 ar  
    30   18   29 ar  
    31   19   20 ar  
    32   19   40 1   
    33   20   21 1   
    34   20   27 ar  
    35   21   22 1   
    36   21   26 2   
    37   22   23 1   
    38   23   24 1   
    39   23   25 2   
    40   24   41 1   
    41   24   42 1   
    42   24   43 1   
    43   25   26 1   
    44   27   28 ar  
    45   27   44 1   
    46   28   29 ar  
    47   28   45 1   
    48   29   30 1   
    49   30   46 1   
    50   30   47 1   
    51   30   48 1   
@<TRIPOS>SUBSTRUCTURE
     1 GK3         1 TEMP              0 ****  ****    0 ROOT
