@<TRIPOS>MOLECULE
GK4
   48    51     1     0     0
SMALL
bcc


@<TRIPOS>ATOM
      1 O2          0.1690    1.0190    0.2300 o         1 GK4     -0.429100
      2 C17         1.3360    0.6970    0.0570 c         1 GK4      0.574700
      3 N3          2.1230    0.3700    1.3170 n4        1 GK4     -0.677800
      4 C18         1.2590    0.1850    2.5260 c3        1 GK4      0.145800
      5 C19         2.0770   -0.1710    3.7300 cx        1 GK4     -0.213700
      6 C21         1.4760   -1.1270    4.7330 cx        1 GK4     -0.101400
      7 C20         2.6210   -1.5710    3.8810 cx        1 GK4     -0.101400
      8 C14         2.0620    0.5620   -1.2010 ca        1 GK4     -0.223600
      9 C13         3.4640    0.5130   -1.2920 ca        1 GK4     -0.061000
     10 C12         4.0740    0.3820   -2.5310 ca        1 GK4     -0.127000
     11 C15         1.2880    0.4960   -2.3750 ca        1 GK4     -0.061000
     12 C16         1.9070    0.3630   -3.6130 ca        1 GK4     -0.127000
     13 C11         3.3050    0.2990   -3.7090 cp        1 GK4      0.073000
     14 C9          3.9760    0.1100   -4.9940 cp        1 GK4     -0.103000
     15 C7          3.6700    0.8780   -6.1320 ca        1 GK4     -0.020300
     16 C8          2.6590    1.9620   -6.1150 c3        1 GK4     -0.071800
     17 C6          4.3550    0.6220   -7.3290 ca        1 GK4     -0.136000
     18 C5          5.3240   -0.3710   -7.4070 ca        1 GK4     -0.063000
     19 C10         4.9650   -0.8840   -5.0670 ca        1 GK4     -0.066000
     20 C4          5.6360   -1.1290   -6.2690 ca        1 GK4     -0.126500
     21 C3          6.6490   -2.1610   -6.3180 cc        1 GK4      0.490900
     22 N2          7.1600   -2.9770   -5.3680 nd        1 GK4     -0.342000
     23 N1          8.0770   -3.7560   -5.9120 nd        1 GK4     -0.347000
     24 O1          7.2810   -2.4370   -7.5440 os        1 GK4     -0.388800
     25 C2          8.1850   -3.4660   -7.2260 cc        1 GK4      0.480700
     26 C1          9.0230   -3.9990   -8.3100 c3        1 GK4     -0.131400
     27 HN3         2.6630   -0.4880    1.1560 hn        1 GK4      0.456300
     28 H18         0.6950    1.1470    2.6990 hx        1 GK4      0.114700
     29 H18A        0.5090   -0.6230    2.2840 hx        1 GK4      0.114700
     30 H19         2.6790    0.6760    4.1190 hc        1 GK4      0.106700
     31 H21         0.4690   -1.5410    4.5470 hc        1 GK4      0.094200
     32 H21A        1.6440   -0.9240    5.8080 hc        1 GK4      0.094200
     33 H20         3.6190   -1.7030    4.3410 hc        1 GK4      0.094200
     34 H20A        2.4360   -2.3120    3.0820 hc        1 GK4      0.094200
     35 H13         4.1070    0.5970   -0.4040 ha        1 GK4      0.147000
     36 H12         5.1750    0.3460   -2.6010 ha        1 GK4      0.172000
     37 H15         0.1880    0.5470   -2.3080 ha        1 GK4      0.147000
     38 H16         1.2930    0.2990   -4.5270 ha        1 GK4      0.172000
     39 H8          1.6720    1.5680   -6.4680 hc        1 GK4      0.056700
     40 H8A         2.9630    2.7940   -6.7990 hc        1 GK4      0.056700
     41 H8B         2.5270    2.3850   -5.0890 hc        1 GK4      0.056700
     42 H6          4.1190    1.2220   -8.2230 ha        1 GK4      0.154000
     43 H5          5.8520   -0.5650   -8.3560 ha        1 GK4      0.164000
     44 H10         5.2030   -1.4830   -4.1730 ha        1 GK4      0.158000
     45 H1          8.8000   -3.4670   -9.2680 hc        1 GK4      0.081367
     46 H1A         8.8210   -5.0930   -8.4380 hc        1 GK4      0.081367
     47 H1B        10.1040   -3.8600   -8.0530 hc        1 GK4      0.081367
     48 H32         2.7870    1.1320    1.4920 hn        1 GK4      0.456300
@<TRIPOS>BOND
     1    1    2 2
     2    2    3 1
     3    2    8 1
     4    3    4 1
     5    3   27 1
     6    3   48 1
     7    4    5 1
     8    4   28 1
     9    4   29 1
    10    5    6 1
    11    5    7 1
    12    5   30 1
    13    6    7 1
    14    6   31 1
    15    6   32 1
    16    7   33 1
    17    7   34 1
    18    8    9 ar
    19    8   11 ar
    20    9   10 ar
    21    9   35 1
    22   10   13 ar
    23   10   36 1
    24   11   12 ar
    25   11   37 1
    26   12   13 ar
    27   12   38 1
    28   13   14 1
    29   14   15 ar
    30   14   19 ar
    31   15   16 1
    32   15   17 ar
    33   16   39 1
    34   16   40 1
    35   16   41 1
    36   17   18 ar
    37   17   42 1
    38   18   20 ar
    39   18   43 1
    40   19   20 ar
    41   19   44 1
    42   20   21 1
    43   21   22 2
    44   21   24 1
    45   22   23 1
    46   23   25 2
    47   24   25 1
    48   25   26 1
    49   26   45 1
    50   26   46 1
    51   26   47 1
@<TRIPOS>SUBSTRUCTURE
     1 GK4         1 TEMP              0 ****  ****    0 ROOT
