@<TRIPOS>MOLECULE
GK5
   50    53     1     0     0
SMALL
bcc


@<TRIPOS>ATOM
      1 C9           0.0000     0.0000     0.0000 c3         1 GK5       0.047200
      2 C22          8.4330    -0.8820     2.8550 cx         1 GK5      -0.083900
      3 C21          8.8560     0.4860     2.3150 cx         1 GK5      -0.083900
      4 C18          7.9590    -0.4240     1.4740 cx         1 GK5       0.005700
      5 C26         -1.2830    -2.3140   -10.6090 cx         1 GK5      -0.071400
      6 C25         -1.7630    -3.2670    -9.5110 cx         1 GK5      -0.071400
      7 C24         -0.7160    -2.1970    -9.1920 cx         1 GK5      -0.143700
      8 C4           1.5070     0.0000     0.0000 ca         1 GK5      -0.050300
      9 C8           2.1950     0.0000     1.1980 ca         1 GK5      -0.112000
     10 C13          3.5760     0.0000     1.2060 ca         1 GK5      -0.080000
     11 C7           4.2840     0.0010     0.0030 ca         1 GK5      -0.163600
     12 C12          5.7630     0.0010     0.0130 c          1 GK5       0.610700
     13 O16          6.3780     0.0010    -1.0350 o          1 GK5      -0.644100
     14 N15          6.4290     0.0000     1.1850 ns         1 GK5      -0.205900
     15 C3           3.5950     0.0010    -1.2080 ca         1 GK5      -0.018000
     16 C1           2.2030    -0.0060    -1.2090 cp         1 GK5      -0.057000
     17 C2           1.4610    -0.0110    -2.4930 cp         1 GK5      -0.009000
     18 C5           0.5250     0.9870    -2.7610 ca         1 GK5      -0.104500
     19 C10         -0.1650     0.9830    -3.9520 ca         1 GK5      -0.059000
     20 C14          0.0750    -0.0200    -4.8940 ca         1 GK5      -0.155600
     21 C11          1.0140    -1.0200    -4.6250 ca         1 GK5      -0.059000
     22 C6           1.7050    -1.0110    -3.4350 ca         1 GK5      -0.104500
     23 C17         -0.6630    -0.0260    -6.1730 c          1 GK5       0.594700
     24 O20         -1.4810     0.8430    -6.4070 o          1 GK5      -0.653100
     25 N19         -0.4320    -0.9950    -7.0810 ns         1 GK5      -0.199900
     26 C23         -1.1640    -1.0010    -8.3500 c3         1 GK5       0.094000
     27 H9          -0.3610    -0.3600     0.9560 hc         1 GK5       0.015367
     28 H9A         -0.3610    -0.6480    -0.7890 hc         1 GK5       0.015367
     29 H9B         -0.3610     1.0080    -0.1670 hc         1 GK5       0.015367
     30 H22A         7.6840    -0.8640     3.6370 hc         1 GK5       0.049700
     31 H21          8.3650     1.3390     2.7670 hc         1 GK5       0.049700
     32 H21A         9.8860     0.5610     1.9860 hc         1 GK5       0.049700
     33 H18          8.4560    -0.9060     0.6410 h1         1 GK5       0.075700
     34 H26         -0.6150    -2.7470   -11.3450 hc         1 GK5       0.047200
     35 H26A        -1.9850    -1.5420   -10.8980 hc         1 GK5       0.047200
     36 H25         -1.3890    -4.2820    -9.5770 hc         1 GK5       0.047200
     37 H25A        -2.7580    -3.0760    -9.1300 hc         1 GK5       0.047200
     38 H24          0.2930    -2.5710    -9.0750 hc         1 GK5       0.059700
     39 H8           1.6500    -0.0000     2.1340 ha         1 GK5       0.110000
     40 H13          4.1100     0.0000     2.1480 ha         1 GK5       0.103000
     41 HN15         5.8450     0.3090     1.9370 hn         1 GK5       0.162500
     42 H3           4.1390    -0.0010    -2.1440 ha         1 GK5       0.133000
     43 H5           0.3390     1.7660    -2.0310 ha         1 GK5       0.115000
     44 H10         -0.8920     1.7590    -4.1600 ha         1 GK5       0.115500
     45 H11          1.2020    -1.7980    -5.3550 ha         1 GK5       0.115500
     46 H6           2.4330    -1.7860    -3.2260 ha         1 GK5       0.115000
     47 HN19         0.2460    -1.7070    -6.8920 hn         1 GK5       0.181500
     48 H23         -0.9610    -0.0830    -8.8880 h1         1 GK5       0.028700
     49 H23A        -2.2270    -1.0760    -8.1530 h1         1 GK5       0.028700
     50 H22          9.2040    -1.6430     2.8560 hc         1 GK5       0.049700
@<TRIPOS>BOND
     1     1     8 1   
     2     1    27 1   
     3     1    28 1   
     4     1    29 1   
     5     2     3 1   
     6     2     4 1   
     7     2    30 1   
     8     2    50 1   
     9     3     4 1   
    10     3    31 1   
    11     3    32 1   
    12     4    14 1   
    13     4    33 1   
    14     5     6 1   
    15     5     7 1   
    16     5    34 1   
    17     5    35 1   
    18     6     7 1   
    19     6    36 1   
    20     6    37 1   
    21     7    26 1   
    22     7    38 1   
    23     8     9 ar  
    24     8    16 ar  
    25     9    10 ar  
    26     9    39 1   
    27    10    11 ar  
    28    10    40 1   
    29    11    12 1   
    30    11    15 ar  
    31    12    13 2   
    32    12    14 1   
    33    14    41 1   
    34    15    16 ar  
    35    15    42 1   
    36    16    17 1   
    37    17    18 ar  
    38    17    22 ar  
    39    18    19 ar  
    40    18    43 1   
    41    19    20 ar  
    42    19    44 1   
    43    20    21 ar  
    44    20    23 1   
    45    21    22 ar  
    46    21    45 1   
    47    22    46 1   
    48    23    24 2   
    49    23    25 1   
    50    25    26 1   
    51    25    47 1   
    52    26    48 1   
    53    26    49 1   
@<TRIPOS>SUBSTRUCTURE
     1 GK5         1 TEMP              0 ****  ****    0 ROOT
