@<TRIPOS>MOLECULE
molecule
   50    53     1     0     0
SMALL
bcc


@<TRIPOS>ATOM
      1 C9           0.0000     0.0000     0.0000 c3         1 GK5      -0.054800
      2 C22          8.4330    -0.8820     2.8550 cx         1 GK5      -0.146900
      3 C21          8.8560     0.4860     2.3150 cx         1 GK5      -0.146900
      4 C18          7.9590    -0.4240     1.4740 cx         1 GK5       0.094700
      5 C26         -1.2830    -2.3140   -10.6090 cx         1 GK5      -0.131400
      6 C25         -1.7630    -3.2670    -9.5110 cx         1 GK5      -0.131400
      7 C24         -0.7160    -2.1970    -9.1920 cx         1 GK5      -0.164700
      8 C4           1.5070     0.0000     0.0000 ca         1 GK5      -0.044300
      9 C8           2.1950     0.0000     1.1980 ca         1 GK5      -0.138000
     10 C13          3.5760     0.0000     1.2060 ca         1 GK5      -0.101000
     11 C7           4.2840     0.0010     0.0030 ca         1 GK5      -0.151600
     12 C12          5.7630     0.0010     0.0130 c          1 GK5       0.679700
     13 O16          6.3780     0.0010    -1.0350 o          1 GK5      -0.605100
     14 N15          6.4290     0.0000     1.1850 ns         1 GK5      -0.588900
     15 C3           3.5950     0.0010    -1.2080 ca         1 GK5      -0.049000
     16 C1           2.2030    -0.0060    -1.2090 cp         1 GK5      -0.060000
     17 C2           1.4610    -0.0110    -2.4930 cp         1 GK5      -0.016000
     18 C5           0.5250     0.9870    -2.7610 ca         1 GK5      -0.126500
     19 C10         -0.1650     0.9830    -3.9520 ca         1 GK5      -0.087500
     20 C14          0.0750    -0.0200    -4.8940 ca         1 GK5      -0.144600
     21 C11          1.0140    -1.0200    -4.6250 ca         1 GK5      -0.087500
     22 C6           1.7050    -1.0110    -3.4350 ca         1 GK5      -0.126500
     23 C17         -0.6630    -0.0260    -6.1730 c          1 GK5       0.672700
     24 O20         -1.4810     0.8430    -6.4070 o          1 GK5      -0.611100
     25 N19         -0.4320    -0.9950    -7.0810 ns         1 GK5      -0.581900
     26 C23         -1.1640    -1.0010    -8.3500 c3         1 GK5       0.149000
     27 H9          -0.3610    -0.3600     0.9560 hc         1 GK5       0.049700
     28 H9A         -0.3610    -0.6480    -0.7890 hc         1 GK5       0.049700
     29 H9B         -0.3610     1.0080    -0.1670 hc         1 GK5       0.049700
     30 H22A         7.6840    -0.8640     3.6370 hc         1 GK5       0.081950
     31 H21          8.3650     1.3390     2.7670 hc         1 GK5       0.081950
     32 H21A         9.8860     0.5610     1.9860 hc         1 GK5       0.081950
     33 H18          8.4560    -0.9060     0.6410 h1         1 GK5       0.111700
     34 H26         -0.6150    -2.7470   -11.3450 hc         1 GK5       0.076950
     35 H26A        -1.9850    -1.5420   -10.8980 hc         1 GK5       0.076950
     36 H25         -1.3890    -4.2820    -9.5770 hc         1 GK5       0.076950
     37 H25A        -2.7580    -3.0760    -9.1300 hc         1 GK5       0.076950
     38 H24          0.2930    -2.5710    -9.0750 hc         1 GK5       0.081700
     39 H8           1.6500    -0.0000     2.1340 ha         1 GK5       0.136000
     40 H13          4.1100     0.0000     2.1480 ha         1 GK5       0.127000
     41 HN15         5.8450     0.3090     1.9370 hn         1 GK5       0.294500
     42 H3           4.1390    -0.0010    -2.1440 ha         1 GK5       0.163000
     43 H5           0.3390     1.7660    -2.0310 ha         1 GK5       0.141000
     44 H10         -0.8920     1.7590    -4.1600 ha         1 GK5       0.143000
     45 H11          1.2020    -1.7980    -5.3550 ha         1 GK5       0.143000
     46 H6           2.4330    -1.7860    -3.2260 ha         1 GK5       0.141000
     47 HN19         0.2460    -1.7070    -6.8920 hn         1 GK5       0.316500
     48 H23         -0.9610    -0.0830    -8.8880 h1         1 GK5       0.057200
     49 H23A        -2.2270    -1.0760    -8.1530 h1         1 GK5       0.057200
     50 H22          9.2040    -1.6430     2.8560 hc         1 GK5       0.081950
@<TRIPOS>BOND
     1     1     8 1
     2     2     3 1
     3     2     4 1
     4     3     4 1
     5     4    14 1
     6     5     6 1
     7     5     7 1
     8     6     7 1
     9     7    26 1
    10     8     9 ar
    11     8    16 ar
    12     9    10 ar
    13    10    11 ar
    14    11    12 1
    15    11    15 ar
    16    12    13 2
    17    12    14 1
    18    15    16 ar
    19    16    17 1
    20    17    18 ar
    21    17    22 ar
    22    18    19 ar
    23    19    20 ar
    24    20    21 ar
    25    20    23 1
    26    21    22 ar
    27    23    24 2
    28    23    25 1
    29    25    26 1
    30     1    27 1
    31     1    28 1
    32     1    29 1
    33     2    50 1
    34     2    30 1
    35     3    31 1
    36     3    32 1
    37     4    33 1
    38     5    34 1
    39     5    35 1
    40     6    36 1
    41     6    37 1
    42     7    38 1
    43     9    39 1
    44    10    40 1
    45    14    41 1
    46    15    42 1
    47    18    43 1
    48    19    44 1
    49    21    45 1
    50    22    46 1
    51    25    47 1
    52    26    48 1
    53    26    49 1
@<TRIPOS>SUBSTRUCTURE
     1 GK5         1 TEMP              0 ****  ****    0 ROOT
