@<TRIPOS>MOLECULE
GK6
   65    69     1     0     0
SMALL
bcc


@<TRIPOS>ATOM
      1 O3           0.0000     0.0000     0.0000 o          1 GK6      -0.652100
      2 C24          1.2160     0.0000     0.0000 c          1 GK6       0.594700
      3 N4           1.8900     0.0000     1.1670 ns         1 GK6      -0.199900
      4 C25          1.1580     0.0010     2.4360 c3         1 GK6       0.094000
      5 C26          2.1530     0.0010     3.5990 cx         1 GK6      -0.143700
      6 C28          1.5840     0.1200     5.0140 cx         1 GK6      -0.071400
      7 C27          2.1530    -1.2150     4.5280 cx         1 GK6      -0.071400
      8 C21          1.9550    -0.0070    -1.2800 ca         1 GK6      -0.157600
      9 C20          1.2560    -0.0130    -2.4900 ca         1 GK6      -0.059000
     10 C19          1.9450    -0.0180    -3.6810 ca         1 GK6      -0.109000
     11 C22          3.3520    -0.0010    -1.2800 ca         1 GK6      -0.059000
     12 C23          4.0390    -0.0070    -2.4740 ca         1 GK6      -0.109000
     13 C18          3.3410    -0.0180    -3.6810 cp         1 GK6      -0.007000
     14 C17          4.0820    -0.0250    -4.9660 cp         1 GK6      -0.029000
     15 C2           5.1030     0.8980    -5.1880 ca         1 GK6      -0.082300
     16 C1           5.4550     1.9040    -4.1230 c3         1 GK6       0.050200
     17 C16          3.7640    -0.9570    -5.9500 ca         1 GK6      -0.114000
     18 C5           4.4610    -0.9580    -7.1490 ca         1 GK6      -0.102400
     19 C4           5.4730    -0.0300    -7.3650 ca         1 GK6      -0.095000
     20 C3           5.7920     0.8900    -6.3840 ca         1 GK6      -0.085000
     21 N1           4.1460    -1.8920    -8.1410 ns         1 GK6      -0.028100
     22 C6           4.2250    -1.5470    -9.4410 c          1 GK6       0.582700
     23 O1           4.6500    -0.4530    -9.7550 o          1 GK6      -0.631100
     24 C7           3.7940    -2.5020   -10.4880 ca         1 GK6      -0.104600
     25 C11          3.8690    -2.1640   -11.8410 ca         1 GK6      -0.176300
     26 C10          3.4530    -3.0920   -12.7890 ca         1 GK6       0.483200
     27 N2           2.9930    -4.2760   -12.4210 nb         1 GK6      -0.610000
     28 C9           2.9090    -4.6290   -11.1520 ca         1 GK6       0.430200
     29 C8           3.3070    -3.7700   -10.1490 ca         1 GK6      -0.242300
     30 N3           3.5200    -2.7700   -14.1400 nh         1 GK6      -0.465300
     31 C15          3.0350    -3.8830   -14.9720 c3         1 GK6       0.100800
     32 C14          3.1830    -3.5100   -16.4490 c3         1 GK6       0.211900
     33 O2           2.4720    -2.2950   -16.7030 os         1 GK6      -0.409600
     34 C13          2.9190    -1.1920   -15.9110 c3         1 GK6       0.211900
     35 C12          2.7690    -1.5400   -14.4280 c3         1 GK6       0.100800
     36 HN4          2.8910     0.0200     1.1660 hn         1 GK6       0.181500
     37 H25          0.5360     0.8860     2.4930 h1         1 GK6       0.029200
     38 H25A         0.5350    -0.8830     2.4940 h1         1 GK6       0.029200
     39 H26          3.1210     0.4650     3.4590 hc         1 GK6       0.058700
     40 H28          0.5040     0.1710     5.0820 hc         1 GK6       0.047700
     41 H28A         2.2010     0.6610     5.7210 hc         1 GK6       0.047700
     42 H27          3.1180    -1.4890     4.9380 hc         1 GK6       0.047700
     43 H27A         1.4210    -1.9790     4.2980 hc         1 GK6       0.047700
     44 H20          0.1730    -0.0130    -2.4910 ha         1 GK6       0.115000
     45 H19          1.4040    -0.0250    -4.6200 ha         1 GK6       0.116000
     46 H22          3.8950     0.0070    -0.3430 ha         1 GK6       0.115000
     47 H23          5.1220    -0.0050    -2.4750 ha         1 GK6       0.116000
     48 H1           4.5500     2.2410    -3.6320 hc         1 GK6       0.013367
     49 H1A          6.1110     1.4440    -3.3950 hc         1 GK6       0.013367
     50 H1B          5.9560     2.7510    -4.5770 hc         1 GK6       0.013367
     51 H16          2.9740    -1.6790    -5.7800 ha         1 GK6       0.111000
     52 H4           6.0170    -0.0320    -8.3010 ha         1 GK6       0.146000
     53 H3           6.5830     1.6100    -6.5560 ha         1 GK6       0.110000
     54 HN1          3.8840    -2.8230    -7.8860 hn         1 GK6       0.173500
     55 H11          4.2450    -1.1950   -12.1460 ha         1 GK6       0.146000
     56 H9           2.5290    -5.6100   -10.8950 h4         1 GK6      -0.018900
     57 H8           3.2340    -4.0690    -9.1100 ha         1 GK6       0.112000
     58 H15          3.6200    -4.7700   -14.7640 h1         1 GK6       0.031450
     59 H15A         1.9910    -4.0700   -14.7500 h1         1 GK6       0.031450
     60 H14          4.2310    -3.3700   -16.6820 h1         1 GK6       0.014700
     61 H14A         2.7730    -4.3020   -17.0630 h1         1 GK6       0.014700
     62 H13          3.9600    -0.9880   -16.1300 h1         1 GK6       0.014700
     63 H13A         2.3190    -0.3190   -16.1380 h1         1 GK6       0.014700
     64 H12          3.1610    -0.7290   -13.8260 h1         1 GK6       0.031450
     65 H12A         1.7220    -1.6950   -14.1980 h1         1 GK6       0.031450
@<TRIPOS>BOND
     1     1     2 2   
     2     2     3 1   
     3     2     8 1   
     4     3     4 1   
     5     3    36 1   
     6     4     5 1   
     7     4    37 1   
     8     4    38 1   
     9     5     6 1   
    10     5     7 1   
    11     5    39 1   
    12     6     7 1   
    13     6    40 1   
    14     6    41 1   
    15     7    42 1   
    16     7    43 1   
    17     8     9 ar  
    18     8    11 ar  
    19     9    10 ar  
    20     9    44 1   
    21    10    13 ar  
    22    10    45 1   
    23    11    12 ar  
    24    11    46 1   
    25    12    13 ar  
    26    12    47 1   
    27    13    14 1   
    28    14    15 ar  
    29    14    17 ar  
    30    15    16 1   
    31    15    20 ar  
    32    16    48 1   
    33    16    49 1   
    34    16    50 1   
    35    17    18 ar  
    36    17    51 1   
    37    18    19 ar  
    38    18    21 1   
    39    19    20 ar  
    40    19    52 1   
    41    20    53 1   
    42    21    22 1   
    43    21    54 1   
    44    22    23 2   
    45    22    24 1   
    46    24    25 ar  
    47    24    29 ar  
    48    25    26 ar  
    49    25    55 1   
    50    26    27 ar  
    51    26    30 1   
    52    27    28 ar  
    53    28    29 ar  
    54    28    56 1   
    55    29    57 1   
    56    30    31 1   
    57    30    35 1   
    58    31    32 1   
    59    31    58 1   
    60    31    59 1   
    61    32    33 1   
    62    32    60 1   
    63    32    61 1   
    64    33    34 1   
    65    34    35 1   
    66    34    62 1   
    67    34    63 1   
    68    35    64 1   
    69    35    65 1   
@<TRIPOS>SUBSTRUCTURE
     1 GK6         1 TEMP              0 ****  ****    0 ROOT
