@<TRIPOS>MOLECULE
GKB
   56    60     1     0     0
SMALL
bcc


@<TRIPOS>ATOM
      1 N1           0.0000     0.0000     0.0000 na         1 GKB       0.413000
      2 N3          -0.6290     1.4280   -13.1430 nu         1 GKB      -0.398600
      3 C4          -4.5320    -0.0020    -1.9100 c3         1 GKB       0.642200
      4 C5          -2.2130     0.0020    -0.9730 ca         1 GKB      -0.081000
      5 C6          -0.8330     0.0010    -1.1280 ca         1 GKB      -0.141200
      6 C7           1.3710     0.0000     0.0000 cc         1 GKB      -0.452600
      7 C8           1.7600     0.0000     1.2890 cd         1 GKB       0.309600
      8 C10         -0.3980     0.0070     1.2980 cc         1 GKB       0.216400
      9 C13         -1.3010     1.2410    -8.2170 ca         1 GKB      -0.006000
     10 C15          0.3150     0.3960    -9.7700 ca         1 GKB      -0.067300
     11 C17         -0.1450     1.6760   -11.7820 c3         1 GKB       0.125500
     12 C20          1.7040     2.3960   -16.3400 ca         1 GKB       0.558900
     13 C21         -0.2690     1.5320   -15.5410 ca         1 GKB       0.347700
     14 C22         -1.3250     1.7720   -10.7910 c3         1 GKB       0.037900
     15 C24          0.4810    -0.1920    -7.4500 ca         1 GKB      -0.080000
     16 C           -1.1800     0.6590    -5.7980 c          1 GKB       0.593700
     17 O           -2.1710     1.3220    -5.5660 o          1 GKB      -0.624100
     18 C1          -1.1080     0.0020    -3.5140 ca         1 GKB      -0.061400
     19 C11         -0.2800     0.0010    -2.3990 ca         1 GKB      -0.127000
     20 C12         -0.6580     0.5680    -7.1790 ca         1 GKB      -0.169600
     21 C14         -0.8150     1.1510    -9.5070 ca         1 GKB      -0.116300
     22 C16          0.6390     0.4600   -11.2470 c3         1 GKB       0.011900
     23 C18          0.1710     1.7600   -14.2390 ca         1 GKB      -0.176000
     24 C19          1.4260     2.3380   -14.0600 ca         1 GKB       0.347700
     25 C2          -2.4880     0.0080    -3.3510 ca         1 GKB      -0.053000
     26 C23          0.9600    -0.2710    -8.7400 ca         1 GKB      -0.087000
     27 C3          -3.0360     0.0030    -2.0830 ca         1 GKB      -0.162300
     28 C9           3.1850    -0.0060     1.7810 c3         1 GKB       0.001600
     29 F           -5.1250    -0.6610    -2.9930 f          1 GKB      -0.204633
     30 F1          -4.8630    -0.6670    -0.7240 f          1 GKB      -0.204633
     31 F2          -5.0000     1.3150    -1.8520 f          1 GKB      -0.204633
     32 N2           0.6620     0.0010     2.0590 nd         1 GKB      -0.600000
     33 N4           2.1550     2.6320   -15.1240 nb         1 GKB      -0.578500
     34 N5           0.5180     1.8610   -16.5520 nb         1 GKB      -0.578500
     35 H2          -2.6460     0.0060     0.0210 ha         1 GKB       0.133000
     36 H3           2.0080     0.1820    -0.8570 h4         1 GKB       0.156000
     37 H4          -1.4250     0.0090     1.6450 h5         1 GKB       0.029100
     38 H5          -2.1860     1.8320    -8.0120 ha         1 GKB       0.129000
     39 H6           0.4630     2.5710   -11.7400 h1         1 GKB       0.051700
     40 H7           2.3250     2.6510   -17.1900 h5         1 GKB       0.002100
     41 H8          -1.2420     1.0930   -15.7230 h4         1 GKB      -0.008400
     42 H9          -1.5710     2.8130   -10.6180 hc         1 GKB       0.031700
     43 H10         -2.1620     1.1950   -11.1650 hc         1 GKB       0.031700
     44 H11          0.9870    -0.7180    -6.6500 ha         1 GKB       0.101000
     45 H13          0.7940    -0.0690    -2.5230 ha         1 GKB       0.124000
     46 H14          0.3090    -0.4460   -11.7420 hc         1 GKB       0.033200
     47 H15          1.7020     0.6070   -11.3910 hc         1 GKB       0.033200
     48 H16          1.8030     2.5360   -13.0630 h4         1 GKB      -0.008400
     49 H17         -3.1350    -0.0190    -4.2200 ha         1 GKB       0.156000
     50 H18          1.8440    -0.8600    -8.9500 ha         1 GKB       0.109000
     51 H19          3.1920    -0.0430     2.8640 hc         1 GKB       0.008033
     52 H20          3.6990    -0.8740     1.3870 hc         1 GKB       0.008033
     53 H21          3.6860     0.8940     1.4470 hc         1 GKB       0.008033
     54 N           -0.5550     0.0070    -4.7980 ns         1 GKB      -0.040100
     55 H1          -1.5450     1.0530   -13.2880 hn         1 GKB       0.297800
     56 H12          0.3570    -0.3770    -4.9480 hn         1 GKB       0.178500
@<TRIPOS>BOND
     1     1     5 1   
     2     1     6 1   
     3     1     8 1   
     4     2    11 1   
     5     2    23 1   
     6     2    55 1   
     7     3    27 1   
     8     3    29 1   
     9     3    30 1   
    10     3    31 1   
    11     4     5 ar  
    12     4    27 ar  
    13     4    35 1   
    14     5    19 ar  
    15     6     7 2   
    16     6    36 1   
    17     7    28 1   
    18     7    32 1   
    19     8    32 2   
    20     8    37 1   
    21     9    20 ar  
    22     9    21 ar  
    23     9    38 1   
    24    10    21 ar  
    25    10    22 1   
    26    10    26 ar  
    27    11    14 1   
    28    11    22 1   
    29    11    39 1   
    30    12    33 ar  
    31    12    34 ar  
    32    12    40 1   
    33    13    23 ar  
    34    13    34 ar  
    35    13    41 1   
    36    14    21 1   
    37    14    42 1   
    38    14    43 1   
    39    15    20 ar  
    40    15    26 ar  
    41    15    44 1   
    42    16    17 2   
    43    16    20 1   
    44    16    54 1   
    45    18    19 ar  
    46    18    25 ar  
    47    18    54 1   
    48    19    45 1   
    49    22    46 1   
    50    22    47 1   
    51    23    24 ar  
    52    24    33 ar  
    53    24    48 1   
    54    25    27 ar  
    55    25    49 1   
    56    26    50 1   
    57    28    51 1   
    58    28    52 1   
    59    28    53 1   
    60    54    56 1   
@<TRIPOS>SUBSTRUCTURE
     1 GKB         1 TEMP              0 ****  ****    0 ROOT
