@<TRIPOS>MOLECULE
molecule
   56    60     1     0     0
SMALL
bcc


@<TRIPOS>ATOM
      1 N1           0.0000     0.0000     0.0000 na         1 GKB      -0.112000
      2 N3          -0.6290     1.4280   -13.1430 nu         1 GKB      -0.811600
      3 C4          -4.5320    -0.0020    -1.9100 c3         1 GKB       0.678200
      4 C5          -2.2130     0.0020    -0.9730 ca         1 GKB      -0.129000
      5 C6          -0.8330     0.0010    -1.1280 ca         1 GKB       0.036800
      6 C7           1.3710     0.0000     0.0000 cc         1 GKB      -0.275600
      7 C8           1.7600     0.0000     1.2890 cc         1 GKB       0.331600
      8 C10         -0.3980     0.0070     1.2980 cd         1 GKB       0.412400
      9 C13         -1.3010     1.2410    -8.2170 ca         1 GKB      -0.045000
     10 C15          0.3150     0.3960    -9.7700 ca         1 GKB      -0.062300
     11 C17         -0.1450     1.6760   -11.7820 c3         1 GKB       0.238500
     12 C20          1.7040     2.3960   -16.3400 ca         1 GKB       0.617900
     13 C21         -0.2690     1.5320   -15.5410 ca         1 GKB       0.377700
     14 C22         -1.3250     1.7720   -10.7910 c3         1 GKB      -0.040100
     15 C24          0.4810    -0.1920    -7.4500 ca         1 GKB      -0.100000
     16 C           -1.1800     0.6590    -5.7980 c          1 GKB       0.679700
     17 O           -2.1710     1.3220    -5.5660 o          1 GKB      -0.583100
     18 C1          -1.1080     0.0020    -3.5140 ca         1 GKB       0.085600
     19 C11         -0.2800     0.0010    -2.3990 ca         1 GKB      -0.167000
     20 C12         -0.6580     0.5680    -7.1790 ca         1 GKB      -0.153600
     21 C14         -0.8150     1.1510    -9.5070 ca         1 GKB      -0.107300
     22 C16          0.6390     0.4600   -11.2470 c3         1 GKB      -0.061100
     23 C18          0.1710     1.7600   -14.2390 ca         1 GKB      -0.049000
     24 C19          1.4260     2.3380   -14.0600 ca         1 GKB       0.377700
     25 C2          -2.4880     0.0080    -3.3510 ca         1 GKB      -0.097000
     26 C23          0.9600    -0.2710    -8.7400 ca         1 GKB      -0.120000
     27 C3          -3.0360     0.0030    -2.0830 ca         1 GKB      -0.135300
     28 C9           3.1850    -0.0060     1.7810 c3         1 GKB      -0.108400
     29 F           -5.1250    -0.6610    -2.9930 f          1 GKB      -0.219300
     30 F1          -4.8630    -0.6670    -0.7240 f          1 GKB      -0.219300
     31 F2          -5.0000     1.3150    -1.8520 f          1 GKB      -0.219300
     32 N2           0.6620     0.0010     2.0590 nc         1 GKB      -0.684000
     33 N4           2.1550     2.6320   -15.1240 nb         1 GKB      -0.695500
     34 N5           0.5180     1.8610   -16.5520 nb         1 GKB      -0.695500
     35 H2          -2.6460     0.0060     0.0210 ha         1 GKB       0.155000
     36 H3           2.0080     0.1820    -0.8570 h4         1 GKB       0.175000
     37 H4          -1.4250     0.0090     1.6450 h5         1 GKB       0.071100
     38 H5          -2.1860     1.8320    -8.0120 ha         1 GKB       0.160000
     39 H6           0.4630     2.5710   -11.7400 h1         1 GKB       0.074700
     40 H7           2.3250     2.6510   -17.1900 h5         1 GKB       0.061100
     41 H8          -1.2420     1.0930   -15.7230 h4         1 GKB       0.028100
     42 H9          -1.5710     2.8130   -10.6180 hc         1 GKB       0.066700
     43 H10         -2.1620     1.1950   -11.1650 hc         1 GKB       0.066700
     44 H11          0.9870    -0.7180    -6.6500 ha         1 GKB       0.126000
     45 H13          0.7940    -0.0690    -2.5230 ha         1 GKB       0.145000
     46 H14          0.3090    -0.4460   -11.7420 hc         1 GKB       0.068200
     47 H15          1.7020     0.6070   -11.3910 hc         1 GKB       0.068200
     48 H16          1.8030     2.5360   -13.0630 h4         1 GKB       0.028100
     49 H17         -3.1350    -0.0190    -4.2200 ha         1 GKB       0.180000
     50 H18          1.8440    -0.8600    -8.9500 ha         1 GKB       0.138000
     51 H19          3.1920    -0.0430     2.8640 hc         1 GKB       0.047700
     52 H20          3.6990    -0.8740     1.3870 hc         1 GKB       0.047700
     53 H21          3.6860     0.8940     1.4470 hc         1 GKB       0.047700
     54 N           -0.5550     0.0070    -4.7980 ns         1 GKB      -0.474100
     55 H1          -1.5450     1.0530   -13.2880 hn         1 GKB       0.444800
     56 H12          0.3570    -0.3770    -4.9480 hn         1 GKB       0.330500
@<TRIPOS>BOND
     1    28     7 1
     2     7    32 1
     3     7     6 2
     4    32     8 2
     5     6     1 1
     6     8     1 1
     7     1     5 1
     8     5    19 ar
     9     5     4 ar
    10    19    18 ar
    11    54    18 1
    12    54    16 1
    13     4    27 ar
    14    18    25 ar
    15    15    26 ar
    16    15    20 ar
    17    26    10 ar
    18    10    22 1
    19    10    21 ar
    20    20    16 1
    21    20     9 ar
    22    22    11 1
    23    16    17 2
    24    21     9 ar
    25    21    14 1
    26    27    25 ar
    27    27     3 1
    28    14    11 1
    29    11     2 1
    30    29     3 1
    31     3    31 1
    32     3    30 1
    33     2    23 1
    34    24    23 ar
    35    24    33 ar
    36    23    13 ar
    37    33    12 ar
    38    13    34 ar
    39    12    34 ar
    40     2    55 1
    41     4    35 1
    42     6    36 1
    43     8    37 1
    44     9    38 1
    45    11    39 1
    46    12    40 1
    47    13    41 1
    48    14    42 1
    49    14    43 1
    50    15    44 1
    51    54    56 1
    52    19    45 1
    53    22    46 1
    54    22    47 1
    55    24    48 1
    56    25    49 1
    57    26    50 1
    58    28    51 1
    59    28    52 1
    60    28    53 1
@<TRIPOS>SUBSTRUCTURE
     1 GKB         1 TEMP              0 ****  ****    0 ROOT
