@<TRIPOS>MOLECULE
molecule
   46    48     1     0     0
SMALL
bcc


@<TRIPOS>ATOM
      1 Cl1          0.0000     0.0000     0.0000 cl         1 GKK      -0.089400
      2 C1           2.0230     1.7170    -4.2300 c3         1 GKK       0.117100
      3 C2           2.8020    -0.5410    -3.7610 c3         1 GKK       0.129800
      4 C3           3.8040    -1.1610    -2.7540 c3         1 GKK      -0.122400
      5 C4           4.7000     0.0400    -2.3730 c3         1 GKK       0.246500
      6 C5           3.8580     1.2880    -2.6970 c3         1 GKK       0.089800
      7 C9           6.2810    -3.7990    -0.1860 ca         1 GKK      -0.146000
      8 C10          7.5760    -4.0910     0.2020 ca         1 GKK      -0.150000
      9 C8           5.9070    -2.4880    -0.4170 ca         1 GKK      -0.139000
     10 C7           6.8280    -1.4690    -0.2590 ca         1 GKK      -0.076300
     11 C6           6.4210    -0.0400    -0.5110 c3         1 GKK       0.254100
     12 N1           2.5510     0.8110    -3.2010 n3         1 GKK      -0.660600
     13 C12          8.1220    -1.7610     0.1300 ca         1 GKK      -0.180300
     14 C13          9.1250    -0.6490     0.3020 c3         1 GKK       0.710200
     15 C14          4.0000     0.0000     0.0000 ca         1 GKK       0.196600
     16 C15          4.3090     0.0000     1.3570 ca         1 GKK      -0.215000
     17 N2           5.0220    -0.0000    -0.9450 nh         1 GKK      -0.744000
     18 C16          3.3010    -0.0010     2.2950 ca         1 GKK      -0.044000
     19 C17          1.9650    -0.0010     1.8830 ca         1 GKK      -0.073000
     20 C18          0.9150    -0.0000     2.8550 cg         1 GKK       0.250800
     21 N3           0.0910    -0.0130     3.6380 n1         1 GKK      -0.371800
     22 C19          1.6580     0.0010     0.5180 ca         1 GKK       0.112400
     23 C20          2.6720    -0.0050    -0.4140 ca         1 GKK      -0.223000
     24 C11          8.4940    -3.0710     0.3660 ca         1 GKK      -0.059000
     25 F1           9.3200     0.1570    -0.7450 f          1 GKK      -0.220633
     26 F2           8.5670    -0.0690     1.3480 f          1 GKK      -0.220633
     27 F3          10.3130    -1.2550     0.6750 f          1 GKK      -0.220633
     28 H1           1.8120     1.4150    -5.2490 h1         1 GKK       0.042033
     29 H1A          2.8150     2.4520    -4.1440 h1         1 GKK       0.042033
     30 H1B          1.1660     2.2840    -3.8860 h1         1 GKK       0.042033
     31 H2           3.4430    -0.5420    -4.6340 h1         1 GKK       0.045700
     32 H2A          1.8520    -0.9100    -4.1280 h1         1 GKK       0.045700
     33 H3           4.4600    -1.9960    -2.9670 hc         1 GKK       0.064700
     34 H3A          3.1770    -1.5940    -1.9840 hc         1 GKK       0.064700
     35 H4           5.6050     0.0340    -2.9690 h1         1 GKK       0.075700
     36 H5           3.4520     1.9630    -1.9530 h1         1 GKK       0.063200
     37 H5A          4.6230     1.8830    -3.1820 h1         1 GKK       0.063200
     38 H10          7.3950    -5.1510     0.3290 ha         1 GKK       0.160000
     39 H8           4.8510    -2.4050    -0.6430 ha         1 GKK       0.147000
     40 H6           6.4780     0.5760     0.3790 h1         1 GKK       0.102700
     41 H6A          6.5830     0.1140    -1.5710 h1         1 GKK       0.102700
     42 H15          5.3190     0.1880     1.7000 ha         1 GKK       0.141000
     43 H16          3.5860    -0.0180     3.3400 ha         1 GKK       0.146000
     44 H20          2.6030    -0.0400    -1.4950 ha         1 GKK       0.205000
     45 H11          9.3510    -3.5390     0.8350 ha         1 GKK       0.159000
     46 H9           5.4470    -4.4010    -0.5280 ha         1 GKK       0.139000
@<TRIPOS>BOND
     1     1    22 1
     2    12     2 1
     3     2    28 1
     4     2    29 1
     5     2    30 1
     6     4     3 1
     7     3    12 1
     8     3    31 1
     9     3    32 1
    10     4     5 1
    11     4    33 1
    12     4    34 1
    13    17     5 1
    14     5     6 1
    15     5    35 1
    16     6    12 1
    17     6    36 1
    18     6    37 1
    19     9     7 ar
    20     7     8 ar
    21     7    46 1
    22     8    24 ar
    23     8    38 1
    24     9    10 ar
    25     9    39 1
    26    11    10 1
    27    10    13 ar
    28    17    11 1
    29    11    40 1
    30    11    41 1
    31    13    14 1
    32    13    24 ar
    33    25    14 1
    34    14    27 1
    35    14    26 1
    36    16    15 ar
    37    23    15 ar
    38    15    17 1
    39    18    16 ar
    40    16    42 1
    41    19    18 ar
    42    18    43 1
    43    20    19 1
    44    19    22 ar
    45    21    20 3
    46    22    23 ar
    47    23    44 1
    48    24    45 1
@<TRIPOS>SUBSTRUCTURE
     1 GKK         1 TEMP              0 ****  ****    0 ROOT
