@<TRIPOS>MOLECULE
molecule
   46    47     1     0     0
SMALL
bcc


@<TRIPOS>ATOM
      1 C4           0.0000     0.0000     0.0000 ca         1 GKN      -0.060300
      2 C5          -0.7530    -0.0000    -1.3060 c3         1 GKN      -0.028100
      3 C6          -1.0070    -1.4430    -1.7480 c3         1 GKN      -0.177400
      4 C2          -0.0090     0.0120     2.3940 ca         1 GKN      -0.142500
      5 C12          6.0710    -2.0120     5.9320 ca         1 GKN      -0.139500
      6 C11          5.3690    -1.8620     4.7550 ca         1 GKN      -0.096500
      7 C10          4.1990    -1.1000     4.7360 ca         1 GKN      -0.078600
      8 O1          -2.0930    -2.6050    -3.6360 o          1 GKN      -0.854800
      9 C8           1.3830     0.0000     0.0000 ca         1 GKN      -0.121000
     10 O2          -2.0600    -0.3960    -3.5780 o          1 GKN      -0.854800
     11 C7          -1.7580    -1.4430    -3.0540 c          1 GKN       0.890600
     12 C3          -0.6950     0.0060     1.1950 ca         1 GKN      -0.121000
     13 C9           2.0750     0.0000     1.1950 ca         1 GKN      -0.142500
     14 C1           1.3800     0.0010     2.3990 ca         1 GKN       0.019600
     15 N            2.0780     0.0070     3.6100 ns         1 GKN      -0.446100
     16 C            3.2370    -0.6710     3.7230 c          1 GKN       0.634700
     17 O            3.7190    -1.2180     2.7500 o          1 GKN      -0.626100
     18 C19          3.7490    -0.4950     5.9100 ca         1 GKN      -0.096500
     19 C18          4.4610    -0.6530     7.0810 ca         1 GKN      -0.139500
     20 C13          5.6190    -1.4100     7.0920 ca         1 GKN      -0.060300
     21 C14          6.3910    -1.5800     8.3760 c3         1 GKN      -0.025700
     22 C17          7.8060    -1.0260     8.1960 c3         1 GKN      -0.080767
     23 C16          5.6850    -0.8200     9.5000 c3         1 GKN      -0.080767
     24 C15          6.4680    -3.0650     8.7330 c3         1 GKN      -0.080767
     25 H1          -0.1670     0.5110    -2.0600 hc         1 GKN       0.054700
     26 H2          -1.6990     0.5100    -1.1770 hc         1 GKN       0.054700
     27 H3          -1.5930    -1.9540    -0.9940 hc         1 GKN       0.033700
     28 H4          -0.0600    -1.9540    -1.8770 hc         1 GKN       0.033700
     29 H5          -0.5540     0.0140     3.3300 ha         1 GKN       0.134000
     30 H9           1.9240    -0.0000    -0.9390 ha         1 GKN       0.137500
     31 H10         -1.7790     0.0150     1.1920 ha         1 GKN       0.137500
     32 H11          3.1580    -0.0040     1.1940 ha         1 GKN       0.134000
     33 H12          1.7330     0.5390     4.3830 hn         1 GKN       0.313500
     34 H13          2.8070     0.0410     5.9170 ha         1 GKN       0.141000
     35 H14          4.1120    -0.1840     7.9930 ha         1 GKN       0.133000
     36 H15          8.3560    -1.6580     7.5090 hc         1 GKN       0.036144
     37 H16          8.3120    -1.0080     9.1540 hc         1 GKN       0.036144
     38 H17          7.7520    -0.0200     7.7980 hc         1 GKN       0.036144
     39 H18          4.6830    -1.2120     9.6280 hc         1 GKN       0.036144
     40 H19          5.6310     0.2320     9.2470 hc         1 GKN       0.036144
     41 H20          6.2400    -0.9410    10.4230 hc         1 GKN       0.036144
     42 H21          6.8890    -3.1770     9.7250 hc         1 GKN       0.036144
     43 H22          5.4730    -3.4930     8.7130 hc         1 GKN       0.036144
     44 H23          7.0950    -3.5770     8.0140 hc         1 GKN       0.036144
     45 H6           6.9790    -2.6030     5.9480 ha         1 GKN       0.133000
     46 H7           5.6840    -2.3930     3.8640 ha         1 GKN       0.141000
@<TRIPOS>BOND
     1    24    21 1
     2    23    21 1
     3    21    20 1
     4    21    22 1
     5     5    20 ar
     6     5     6 ar
     7    20    19 ar
     8     6     7 ar
     9    17    16 2
    10    19    18 ar
    11     7    16 1
    12     7    18 ar
    13    16    15 1
    14    15    14 1
    15     4    14 ar
    16     4    12 ar
    17    14    13 ar
    18    12     1 ar
    19    13     9 ar
    20     1     9 ar
    21     1     2 1
    22     2     3 1
    23     3    11 1
    24    11    10 1
    25    11     8 1
    26     2    25 1
    27     2    26 1
    28     3    27 1
    29     3    28 1
    30     4    29 1
    31     5    45 1
    32     6    46 1
    33     9    30 1
    34    12    31 1
    35    13    32 1
    36    15    33 1
    37    18    34 1
    38    19    35 1
    39    22    36 1
    40    22    37 1
    41    22    38 1
    42    23    39 1
    43    23    40 1
    44    23    41 1
    45    24    42 1
    46    24    43 1
    47    24    44 1
@<TRIPOS>SUBSTRUCTURE
     1 GKN         1 TEMP              0 ****  ****    0 ROOT
