@<TRIPOS>MOLECULE
molecule
   50    51     1     0     0
SMALL
bcc


@<TRIPOS>ATOM
      1 C1           0.0000     0.0000     0.0000 ca         1 GKP      -0.116000
      2 C10         -6.3680     0.0260    -1.0420 c3         1 GKP       0.059100
      3 C11         -6.8640     1.4490    -1.0130 c          1 GKP       0.886600
      4 C12         -6.9470    -0.6910    -2.2630 c3         1 GKP       0.059100
      5 C14         -7.2520     0.6760    -5.6720 ce         1 GKP      -0.118700
      6 C15         -8.1270     0.5970    -6.6980 cf         1 GKP      -0.121700
      7 C16         -7.8650     1.3300    -7.9450 ca         1 GKP      -0.010300
      8 C17         -8.7740     1.2550    -9.0070 ca         1 GKP      -0.154000
      9 C18         -8.5230     1.9460   -10.1760 ca         1 GKP       0.080600
     10 C19         -7.3670     2.7170   -10.2960 ca         1 GKP       0.060100
     11 C2           1.3780     0.0000     0.0000 ca         1 GKP      -0.161000
     12 C20         -6.4650     2.7920    -9.2430 ca         1 GKP      -0.161000
     13 C21         -6.7100     2.1110    -8.0710 ca         1 GKP      -0.116000
     14 C22         -6.3560    -2.0740    -2.3610 c          1 GKP       0.886600
     15 C3           2.0750     0.0000     1.2010 ca         1 GKP       0.060100
     16 C4           1.3850     0.0010     2.4130 ca         1 GKP       0.080600
     17 C5           0.0040     0.0020     2.4220 ca         1 GKP      -0.154000
     18 C6          -0.7000     0.0010     1.2120 ca         1 GKP      -0.010300
     19 C7          -2.1690     0.0060     1.2140 cf         1 GKP      -0.121700
     20 C8          -2.8460     0.0110     0.0460 ce         1 GKP      -0.118700
     21 C9          -4.2640     0.0170     0.0480 c          1 GKP       0.635800
     22 O1          -4.8710     0.0170     1.1020 o          1 GKP      -0.573500
     23 O10         -5.6530    -2.3650    -3.2990 o          1 GKP      -0.853800
     24 O11          2.0730     0.0020     3.5870 oh         1 GKP      -0.522100
     25 O12          3.4330    -0.0010     1.1950 oh         1 GKP      -0.522100
     26 O2          -4.9410     0.0200    -1.1190 os         1 GKP      -0.361900
     27 O3          -6.0850     2.3630    -1.1460 o          1 GKP      -0.853800
     28 O4          -8.1710     1.7000    -0.8400 o          1 GKP      -0.853800
     29 O5          -6.6300     0.0470    -3.4450 os         1 GKP      -0.361900
     30 O6          -8.5090    -0.7090    -4.3620 o          1 GKP      -0.573500
     31 O7          -7.1220     3.3960   -11.4460 oh         1 GKP      -0.522100
     32 O8          -9.4030     1.8750   -11.2100 oh         1 GKP      -0.522100
     33 O9          -6.6110    -2.9820    -1.4060 o          1 GKP      -0.853800
     34 H1          -0.5410    -0.0000    -0.9380 ha         1 GKP       0.155500
     35 H2          -6.6830    -0.4850    -0.1400 h1         1 GKP       0.095700
     36 H3          -8.0230    -0.7640    -2.1620 h1         1 GKP       0.095700
     37 H4          -6.3580     1.2800    -5.7680 ha         1 GKP       0.136500
     38 H5          -9.0210    -0.0070    -6.6020 ha         1 GKP       0.158500
     39 H6          -9.7120     0.7280    -8.8810 ha         1 GKP       0.145500
     40 H7           1.9180    -0.0010    -0.9390 ha         1 GKP       0.132500
     41 H8          -5.5640     3.3860    -9.3440 ha         1 GKP       0.132500
     42 H9          -5.8530     2.3490    -7.4530 ha         1 GKP       0.155500
     43 H10         -0.5330     0.0030     3.3620 ha         1 GKP       0.145500
     44 H11         -2.7090     0.0060     2.1530 ha         1 GKP       0.158500
     45 H12         -2.3060     0.0120    -0.8930 ha         1 GKP       0.136500
     46 H13          1.9960    -0.8440     3.9970 ho         1 GKP       0.413000
     47 H14          3.7470     0.8570     0.9600 ho         1 GKP       0.409500
     48 H16         -7.2960     4.3130   -11.3130 ho         1 GKP       0.409500
     49 H17         -9.3550     1.0200   -11.6050 ho         1 GKP       0.413000
     50 C13         -7.5040    -0.0310    -4.4700 c          1 GKP       0.635800
@<TRIPOS>BOND
     1    32     9 1
     2     9     8 ar
     3     9    10 ar
     4     8     7 ar
     5    23    14 1
     6    33    14 1
     7    31    10 1
     8    10    12 ar
     9     7     6 1
    10     7    13 ar
    11     6     5 2
    12    14     4 1
    13    30    50 2
    14    12    13 ar
    15     5    50 1
    16    50    29 1
    17     4    29 1
    18     4     2 1
    19     2    26 1
    20     2     3 1
    21    26    21 1
    22    11     1 ar
    23    11    15 ar
    24     1    18 ar
    25    25    15 1
    26    15    16 ar
    27    20    21 1
    28    20    19 2
    29    21    22 2
    30    18    19 1
    31    18    17 ar
    32    16    17 ar
    33    16    24 1
    34     3    27 1
    35     3    28 1
    36     1    34 1
    37     2    35 1
    38     4    36 1
    39     5    37 1
    40     6    38 1
    41     8    39 1
    42    11    40 1
    43    12    41 1
    44    13    42 1
    45    17    43 1
    46    19    44 1
    47    20    45 1
    48    24    46 1
    49    25    47 1
    50    31    48 1
    51    32    49 1
@<TRIPOS>SUBSTRUCTURE
     1 GKP         1 TEMP              0 ****  ****    0 ROOT
