@<TRIPOS>MOLECULE
GKQ
   50    53     1     0     0
SMALL
bcc


@<TRIPOS>ATOM
      1 C            0.0000     0.0000     0.0000 ca         1 GKQ       0.043400
      2 N            1.3590     0.0000     0.0000 nc         1 GKQ      -0.506100
      3 O           -2.9990    -0.0010    -2.9040 o          1 GKQ      -0.651100
      4 C1          -0.4100    -0.0070     1.3470 ca         1 GKQ      -0.243200
      5 C2           1.7940     0.0000     1.2250 cd         1 GKQ       0.254700
      6 N3          -4.6430    -0.0020    -1.4110 ns         1 GKQ      -0.206900
      7 C13         -5.6600    -0.0020    -2.4660 c3         1 GKQ       0.113300
      8 C14         -7.0310    -0.0040    -1.8410 ca         1 GKQ      -0.115300
      9 C17         -7.6570    -1.2020    -1.5510 ca         1 GKQ      -0.084000
     10 C18         -8.9160    -1.2030    -0.9770 ca         1 GKQ      -0.092000
     11 C19         -9.5480    -0.0070    -0.6960 ca         1 GKQ      -0.093000
     12 C16         -8.9220     1.1920    -0.9870 ca         1 GKQ      -0.036600
     13 Cl          -9.7170     2.6940    -0.6330 cl         1 GKQ      -0.022400
     14 C15         -7.6610     1.1930    -1.5550 ca         1 GKQ      -0.084000
     15 C11         -2.3100    -0.0020    -0.6720 ca         1 GKQ      -0.186600
     16 C10         -0.9610    -0.0010    -1.0100 ca         1 GKQ       0.044000
     17 C20         -2.7010    -0.0040     0.6740 ca         1 GKQ      -0.078000
     18 C9          -1.7630    -0.0090     1.6650 ca         1 GKQ      -0.095000
     19 N1           0.7470    -0.0090     2.0950 na         1 GKQ       0.301700
     20 C4           0.7400    -1.4550     4.0680 c3         1 GKQ       0.133800
     21 N2           0.8270    -1.4620     5.5340 n3         1 GKQ      -0.543600
     22 C7           0.5030    -2.7940     6.0770 c3         1 GKQ       0.150300
     23 C8           1.7110    -3.2490     6.9230 c3         1 GKQ      -0.035400
     24 C6           2.4150    -1.9110     7.2760 c3         1 GKQ      -0.035400
     25 C5           2.1840    -1.0870     5.9850 c3         1 GKQ       0.150300
     26 H1           2.8390     0.0070     1.5120 h5         1 GKQ       0.027800
     27 H2           1.7810     0.4140     3.8640 h1         1 GKQ       0.042700
     28 H3           0.0220     0.5680     3.9700 h1         1 GKQ       0.042700
     29 H4          -4.9200     0.0310    -0.4490 hn         1 GKQ       0.183500
     30 H5          -5.5440     0.8830    -3.0800 h1         1 GKQ       0.031200
     31 H6          -5.5420    -0.8860    -3.0820 h1         1 GKQ       0.031200
     32 H7          -7.1620    -2.1390    -1.7710 ha         1 GKQ       0.111000
     33 H8          -9.4060    -2.1410    -0.7500 ha         1 GKQ       0.108000
     34 H9         -10.5340    -0.0090    -0.2460 ha         1 GKQ       0.115000
     35 H10         -7.1700     2.1310    -1.7830 ha         1 GKQ       0.121000
     36 H11         -0.6600    -0.1280    -2.0430 ha         1 GKQ       0.134000
     37 H12         -3.7540    -0.0020     0.9290 ha         1 GKQ       0.102000
     38 H13         -2.0730    -0.0100     2.7030 ha         1 GKQ       0.105000
     39 H14          1.5530    -2.0390     3.6550 h1         1 GKQ       0.020200
     40 H15         -0.2060    -1.8860     3.7600 h1         1 GKQ       0.020200
     41 H17          0.3400    -3.4920     5.2650 h1         1 GKQ       0.016450
     42 H18         -0.3800    -2.7310     6.7010 h1         1 GKQ       0.016450
     43 H19          1.3780    -3.7530     7.8230 hc         1 GKQ       0.022950
     44 H20          2.3680    -3.8830     6.3400 hc         1 GKQ       0.022950
     45 H21          1.9380    -1.4380     8.1260 hc         1 GKQ       0.022950
     46 H22          3.4720    -2.0670     7.4510 hc         1 GKQ       0.022950
     47 H23          2.9170    -1.3540     5.2340 h1         1 GKQ       0.016450
     48 H24          2.2280    -0.0270     6.2040 h1         1 GKQ       0.016450
     49 C3           0.8350    -0.0160     3.5570 c3         1 GKQ      -0.040700
     50 C12         -3.3350    -0.0010    -1.7360 c          1 GKQ       0.602700
@<TRIPOS>BOND
     1     1     2 1   
     2     1     4 ar  
     3     1    16 ar  
     4     2     5 2   
     5     3    50 2   
     6     4    18 ar  
     7     4    19 1   
     8     5    19 1   
     9     5    26 1   
    10     6     7 1   
    11     6    29 1   
    12     6    50 1   
    13     7     8 1   
    14     7    30 1   
    15     7    31 1   
    16     8     9 ar  
    17     8    14 ar  
    18     9    10 ar  
    19     9    32 1   
    20    10    11 ar  
    21    10    33 1   
    22    11    12 ar  
    23    11    34 1   
    24    12    13 1   
    25    12    14 ar  
    26    14    35 1   
    27    15    16 ar  
    28    15    17 ar  
    29    15    50 1   
    30    16    36 1   
    31    17    18 ar  
    32    17    37 1   
    33    18    38 1   
    34    19    49 1   
    35    20    21 1   
    36    20    39 1   
    37    20    40 1   
    38    20    49 1   
    39    21    22 1   
    40    21    25 1   
    41    22    23 1   
    42    22    41 1   
    43    22    42 1   
    44    23    24 1   
    45    23    43 1   
    46    23    44 1   
    47    24    25 1   
    48    24    45 1   
    49    24    46 1   
    50    25    47 1   
    51    25    48 1   
    52    27    49 1   
    53    28    49 1   
@<TRIPOS>SUBSTRUCTURE
     1 GKQ         1 TEMP              0 ****  ****    0 ROOT
