@<TRIPOS>MOLECULE
GKR
   22    21     1     0     0
SMALL
bcc


@<TRIPOS>ATOM
      1 O1B        -0.2300    0.2880   -0.0420 o         1 GKR     -0.853800
      2 O1A         1.6910   -0.3880   -0.9560 o         1 GKR     -0.853800
      3 C1          0.9910   -0.0180    0.0380 c         1 GKR      0.893600
      4 C2          1.7050    0.0660    1.4100 c3        1 GKR     -0.008400
      5 O2          2.8720    0.8630    1.2840 oh        1 GKR     -0.624800
      6 C3          2.0380   -1.3470    1.9210 c3        1 GKR      0.127100
      7 O3          2.9860   -1.9940    1.0820 oh        1 GKR     -0.620300
      8 C4          2.6220   -1.3610    3.3510 c3        1 GKR      0.127100
      9 O4          4.0110   -1.1010    3.3320 oh        1 GKR     -0.620300
     10 O5          0.9620   -2.6350    4.5490 oh        1 GKR     -0.624800
     11 C5          2.2890   -2.6950    4.0490 c3        1 GKR     -0.008400
     12 C6          3.2890   -3.0540    5.1750 c         1 GKR      0.893600
     13 O6A         2.8630   -2.9890    6.3670 o         1 GKR     -0.853800
     14 O6B         4.4520   -3.4280    4.8560 o         1 GKR     -0.853800
     15 H21         1.0630    0.6030    2.1560 h1        1 GKR      0.058200
     16 HO21        3.4230    0.4150    0.6290 ho        1 GKR      0.408500
     17 H31         1.0810   -1.9440    1.9180 h1        1 GKR      0.047200
     18 HO31        2.7460   -1.7720    0.1680 ho        1 GKR      0.427000
     19 H42         2.1720   -0.5060    3.9290 h1        1 GKR      0.047200
     20 H41         4.4530   -1.9480    3.1700 ho        1 GKR      0.427000
     21 HO51        1.0330   -2.4790    5.5040 ho        1 GKR      0.408500
     22 H51         2.2950   -3.5200    3.2850 h1        1 GKR      0.058200
@<TRIPOS>BOND
     1    1    3 1   
     2    2    3 1   
     3    3    4 1   
     4    4    5 1   
     5    4    6 1   
     6    4   15 1   
     7    5   16 1   
     8    6    7 1   
     9    6    8 1   
    10    6   17 1   
    11    7   18 1   
    12    8    9 1   
    13    8   11 1   
    14    8   19 1   
    15    9   20 1   
    16   10   11 1   
    17   10   21 1   
    18   11   12 1   
    19   11   22 1   
    20   12   13 1   
    21   12   14 1   
@<TRIPOS>SUBSTRUCTURE
     1 GKR         1 TEMP              0 ****  ****    0 ROOT
