@<TRIPOS>MOLECULE
molecule
   22    21     1     0     0
SMALL
bcc


@<TRIPOS>ATOM
      1 O1B          0.0000     0.0000     0.0000 o          1 GKR      -0.858800
      2 O1A          1.9130    -0.0010    -1.1050 o          1 GKR      -0.858800
      3 C1           1.2750     0.0000     0.0000 c          1 GKR       0.883600
      4 C2           2.0290     0.0000     1.3050 c3         1 GKR       0.012600
      5 O2           3.4300     0.1180     1.0460 oh         1 GKR      -0.592800
      6 C3           1.7570    -1.3080     2.0510 c3         1 GKR       0.170600
      7 O3           2.0790    -2.4150     1.2060 oh         1 GKR      -0.565300
      8 C4           2.6170    -1.3630     3.3140 c3         1 GKR       0.170600
      9 O4           3.9910    -1.1820     2.9640 oh         1 GKR      -0.565300
     10 O5           1.0660    -2.9010     4.3460 oh         1 GKR      -0.592800
     11 C5           2.4390    -2.7210     3.9950 c3         1 GKR       0.012600
     12 C6           3.2870    -2.7750     5.2400 c          1 GKR       0.883600
     13 O6A          2.7570    -2.8610     6.3350 o          1 GKR      -0.858800
     14 O6B          4.5030    -2.7340     5.1520 o          1 GKR      -0.858800
     15 H21          1.7020     0.8360     1.9110 h1         1 GKR       0.021200
     16 HO21         3.6310     1.0050     0.7990 ho         1 GKR       0.369500
     17 H31          0.7100    -1.3560     2.3250 h1         1 GKR       0.037700
     18 HO31         1.2840    -2.8320     0.9180 ho         1 GKR       0.380000
     19 H42          2.3120    -0.5760     3.9940 h1         1 GKR       0.037700
     20 H41          4.3880    -0.5650     3.5560 ho         1 GKR       0.380000
     21 HO51         0.8950    -3.8180     4.4870 ho         1 GKR       0.369500
     22 H51          2.7440    -3.5080     3.3150 h1         1 GKR       0.021200
@<TRIPOS>BOND
     1     1     3 1
     2     2     3 1
     3     3     4 1
     4     4     5 1
     5     4     6 1
     6     4    15 1
     7     5    16 1
     8     6     7 1
     9     6     8 1
    10     6    17 1
    11     7    18 1
    12     8     9 1
    13     8    11 1
    14     8    19 1
    15     9    20 1
    16    10    11 1
    17    10    21 1
    18    11    12 1
    19    11    22 1
    20    12    13 1
    21    12    14 1
@<TRIPOS>SUBSTRUCTURE
     1 GKR         1 TEMP              0 ****  ****    0 ROOT
