@<TRIPOS>MOLECULE
molecule
   48    49     1     0     0
SMALL
bcc


@<TRIPOS>ATOM
      1 PG           0.0000     0.0000     0.0000 p5         1 GKS       1.307900
      2 O1G          1.6100     0.0000     0.0000 o          1 GKS      -0.645167
      3 O2G         -0.5370     0.0000     1.5180 o          1 GKS      -0.645167
      4 O3G         -0.4930    -1.2080    -0.6990 o          1 GKS      -0.645167
      5 O3B         -0.5370     1.3150    -0.7590 os         1 GKS      -0.717800
      6 PB          -0.7200     1.7160    -2.3070 p5         1 GKS       1.558800
      7 O1B         -2.0760     1.0590    -2.8750 o          1 GKS      -0.759500
      8 O2B          0.4340     1.2160    -3.0860 o          1 GKS      -0.759500
      9 O3A         -0.8040     3.3190    -2.4400 os         1 GKS      -0.724800
     10 PA          -0.6790     4.3460    -3.6720 p5         1 GKS       1.449800
     11 O1A          0.8670     4.4820    -4.1040 o          1 GKS      -0.847000
     12 O2A         -1.4680     3.8420    -4.8180 o          1 GKS      -0.847000
     13 O5'         -1.2390     5.7890    -3.2280 os         1 GKS      -0.593200
     14 C5'         -1.3600     6.8900    -4.1310 c3         1 GKS       0.236400
     15 C4'         -1.9240     8.1010    -3.3860 c3         1 GKS       0.120100
     16 O4'         -0.9720     8.5620    -2.4120 os         1 GKS      -0.372600
     17 C3'         -2.1700     9.2570    -4.3750 c3         1 GKS       0.103100
     18 O3'         -3.5500     9.6230    -4.3840 oh         1 GKS      -0.608800
     19 C2'         -1.3010    10.4160    -3.8270 c3         1 GKS      -0.140400
     20 C1'         -1.1020     9.9990    -2.3440 c3         1 GKS       0.140100
     21 C9           0.1700    10.6290    -1.7730 c3         1 GKS      -0.006200
     22 C4           0.2740    10.3090    -0.3040 cc         1 GKS       0.160400
     23 N3          -0.3580    11.0690     0.5900 nd         1 GKS      -0.699300
     24 C2          -0.2920    10.8140     1.8790 cc         1 GKS       0.142800
     25 N2          -0.9600    11.6240     2.7620 nz         1 GKS      -0.637600
     26 N1           0.4260     9.7590     2.3540 ns         1 GKS      -0.481400
     27 C6           1.0860     8.9540     1.4930 c          1 GKS       0.741700
     28 O6           1.7340     8.0050     1.9020 o          1 GKS      -0.663500
     29 C5           1.0110     9.2350     0.1110 cd         1 GKS      -0.224600
     30 N7           1.6780     8.4220    -0.8200 ns         1 GKS      -0.443100
     31 C8           3.0170     8.2800    -0.7560 c          1 GKS       0.659900
     32 O8           3.6360     8.7850     0.1560 o          1 GKS      -0.654100
     33 H5          -2.0280     6.6210    -4.9410 h1         1 GKS       0.025700
     34 H6          -0.3850     7.1350    -4.5340 h1         1 GKS       0.025700
     35 H7          -2.8530     7.8370    -2.8940 h1         1 GKS       0.070700
     36 H8          -1.8400     8.9780    -5.3690 h1         1 GKS       0.041700
     37 H9          -3.8450     9.7160    -5.2740 ho         1 GKS       0.384000
     38 H10         -1.8320    11.3580    -3.8930 hc         1 GKS       0.042700
     39 H11         -0.3510    10.4620    -4.3450 hc         1 GKS       0.042700
     40 H12         -1.9680    10.2720    -1.7540 h1         1 GKS       0.049700
     41 H13          1.0340    10.2310    -2.2910 hc         1 GKS       0.046200
     42 H14          0.1310    11.7030    -1.9070 hc         1 GKS       0.046200
     43 H15         -1.6640    11.0920     3.2340 hn         1 GKS       0.358133
     44 H16         -0.3130    11.9910     3.4320 hn         1 GKS       0.358133
     45 H18          1.1540     7.9110    -1.5030 hn         1 GKS       0.349500
     46 H19          3.5410     7.7270    -1.5260 h5         1 GKS       0.017200
     47 H20          0.4650     9.5810     3.3380 hn         1 GKS       0.277500
     48 H23         -1.3890    12.3780     2.2630 hn         1 GKS       0.358133
@<TRIPOS>BOND
     1    25    24 1
     2    24    26 1
     3    24    23 2
     4    26    27 1
     5    23    22 1
     6    27    28 2
     7    27    29 1
     8    19    20 1
     9    19    17 1
    10    22    29 2
    11    22    21 1
    12    20    21 1
    13    20    16 1
    14    29    30 1
    15    18    17 1
    16    32    31 2
    17    17    15 1
    18    16    15 1
    19    30    31 1
    20    15    14 1
    21     7     6 1
    22    14    13 1
    23    13    10 1
    24     6     9 1
    25     6     8 1
    26     6     5 1
    27     9    10 1
    28     5     1 1
    29    10    12 1
    30    10    11 1
    31     1     2 1
    32     1     4 1
    33     1     3 1
    34    14    33 1
    35    14    34 1
    36    15    35 1
    37    17    36 1
    38    18    37 1
    39    19    38 1
    40    19    39 1
    41    20    40 1
    42    21    41 1
    43    21    42 1
    44    25    43 1
    45    25    44 1
    46    30    45 1
    47    31    46 1
    48    26    47 1
    49    48    25 1
@<TRIPOS>SUBSTRUCTURE
     1 GKS         1 TEMP              0 ****  ****    0 ROOT
