@<TRIPOS>MOLECULE
molecule
   50    53     1     0     0
SMALL
bcc


@<TRIPOS>ATOM
      1 C1           0.0000     0.0000     0.0000 ca         1 GKT      -0.027300
      2 C2           1.3830     0.0000     0.0000 ca         1 GKT      -0.140000
      3 C3           2.0760     0.0000     1.1930 ca         1 GKT      -0.048000
      4 C4           1.3790     0.0010     2.4020 ca         1 GKT      -0.157600
      5 C5          -0.0170     0.0010     2.3960 ca         1 GKT      -0.071000
      6 C6          -0.6980     0.0010     1.1950 ca         1 GKT       0.039900
      7 C7           2.1150     0.0000     3.6830 c          1 GKT       0.676700
      8 O            3.3300    -0.0010     3.6870 o          1 GKT      -0.594100
      9 I           -2.7940     0.0010     1.1820 i          1 GKT      -0.162900
     10 C           -0.7500     0.0070    -1.3070 c3         1 GKT      -0.062800
     11 N            1.4380     0.0010     4.8490 ns         1 GKT      -0.472100
     12 C8           2.1320    -0.0980     6.0610 ca         1 GKT       0.058600
     13 C20          3.3700     0.5060     6.1970 ca         1 GKT      -0.121000
     14 C19          4.0540     0.4050     7.4010 ca         1 GKT      -0.078200
     15 C11          3.4870    -0.3070     8.4710 ca         1 GKT       0.079400
     16 C10          2.2360    -0.9100     8.3140 ca         1 GKT      -0.057000
     17 C9           1.5700    -0.8000     7.1270 ca         1 GKT      -0.169000
     18 N3           5.2700     0.8750     7.8570 na         1 GKT      -0.250300
     19 C12          5.4100     0.4550     9.1440 cc         1 GKT       0.429800
     20 N1           4.3680    -0.2370     9.5030 nd         1 GKT      -0.609100
     21 C13          6.5970     0.7470    10.0240 c3         1 GKT       0.160500
     22 N2           6.3190     1.9330    10.8430 n3         1 GKT      -0.732600
     23 C18          7.5310     2.3890    11.5370 c3         1 GKT       0.160800
     24 C17          7.2390     3.7060    12.2620 c3         1 GKT      -0.077400
     25 C16          6.1050     3.4890    13.2670 c3         1 GKT      -0.083400
     26 C15          4.8700     2.9680    12.5270 c3         1 GKT      -0.077400
     27 C14          5.2290     1.6730    11.7930 c3         1 GKT       0.160800
     28 H1           1.9240    -0.0010    -0.9390 ha         1 GKT       0.144000
     29 H2           3.1590    -0.0000     1.1910 ha         1 GKT       0.161000
     30 H3          -0.5650     0.0020     3.3300 ha         1 GKT       0.136000
     31 H4          -0.0440     0.0010    -2.1280 hc         1 GKT       0.056033
     32 H5          -1.3650     0.8970    -1.3660 hc         1 GKT       0.056033
     33 H6          -1.3800    -0.8720    -1.3660 hc         1 GKT       0.056033
     34 H7           0.4420     0.1000     4.8500 hn         1 GKT       0.326500
     35 H8           3.7480     1.1510     5.4130 ha         1 GKT       0.157000
     36 H9           1.7910    -1.4570     9.1350 ha         1 GKT       0.143000
     37 H10          0.5980    -1.2620     7.0120 ha         1 GKT       0.132000
     38 H11          5.9260     1.4230     7.3370 hn         1 GKT       0.307700
     39 H13          6.7850    -0.1020    10.6700 h1         1 GKT       0.054200
     40 H14          7.4680     0.9310     9.4060 h1         1 GKT       0.054200
     41 H16          8.3220     2.5450    10.8140 h1         1 GKT       0.040950
     42 H17          7.8360     1.6410    12.2580 h1         1 GKT       0.040950
     43 H18          8.1290     4.0320    12.7880 hc         1 GKT       0.048700
     44 H19          6.9430     4.4570    11.5400 hc         1 GKT       0.048700
     45 H20          6.4140     2.7630    14.0090 hc         1 GKT       0.040700
     46 H21          5.8670     4.4290    13.7500 hc         1 GKT       0.040700
     47 H22          4.5400     3.7090    11.8090 hc         1 GKT       0.048700
     48 H23          4.0790     2.7700    13.2400 hc         1 GKT       0.048700
     49 H24          5.5500     0.9290    12.5130 h1         1 GKT       0.040950
     50 H25          4.3620     1.3120    11.2550 h1         1 GKT       0.040950
@<TRIPOS>BOND
     1    10     1 1
     2     2     1 ar
     3     2     3 ar
     4     1     6 ar
     5     3     4 ar
     6     6     9 1
     7     6     5 ar
     8     8     7 2
     9     4     5 ar
    10     4     7 1
    11     7    11 1
    12    11    12 1
    13    13    12 ar
    14    13    14 ar
    15    12    17 ar
    16    18    14 1
    17    18    19 1
    18    14    15 ar
    19    17    16 ar
    20    19    21 1
    21    19    20 2
    22    15    16 ar
    23    15    20 1
    24    21    22 1
    25    22    23 1
    26    22    27 1
    27    23    24 1
    28    24    25 1
    29    27    26 1
    30    25    26 1
    31     2    28 1
    32     3    29 1
    33     5    30 1
    34    10    31 1
    35    10    32 1
    36    10    33 1
    37    11    34 1
    38    13    35 1
    39    16    36 1
    40    17    37 1
    41    18    38 1
    42    21    39 1
    43    21    40 1
    44    23    41 1
    45    23    42 1
    46    24    43 1
    47    24    44 1
    48    25    45 1
    49    25    46 1
    50    26    47 1
    51    26    48 1
    52    27    49 1
    53    27    50 1
@<TRIPOS>SUBSTRUCTURE
     1 GKT         1 TEMP              0 ****  ****    0 ROOT
