@<TRIPOS>MOLECULE
GKW
   38    40     1     0     0
SMALL
bcc


@<TRIPOS>ATOM
      1 C01          0.0000     0.0000     0.0000 c3         1 GKW       0.243700
      2 O02          1.4290     0.0000     0.0000 os         1 GKW      -0.305900
      3 C03          2.0460     0.0000     1.2120 ca         1 GKW       0.162100
      4 C04          3.4310    -0.0000     1.2860 ca         1 GKW      -0.174500
      5 C05          4.0550    -0.0010     2.5180 ca         1 GKW      -0.038500
      6 C06          3.3000    -0.0010     3.6770 ca         1 GKW      -0.181300
      7 C07          3.9850    -0.0080     5.0200 c3         1 GKW       0.025600
      8 N08          4.2060    -1.3910     5.4480 na         1 GKW       0.409600
      9 C09          3.3740    -2.1020     6.2640 cc         1 GKW      -0.243100
     10 C10          3.8680    -3.3370     6.4600 cd         1 GKW      -0.171200
     11 C11          5.1200    -3.4220     5.7070 ca         1 GKW      -0.086800
     12 C12          6.0720    -4.4310     5.5210 ca         1 GKW      -0.047000
     13 C13          7.1630    -4.1990     4.7390 ca         1 GKW      -0.126000
     14 C14          7.3380    -2.9550     4.1170 ca         1 GKW      -0.150600
     15 C15          8.5260    -2.7170     3.2720 c          1 GKW       0.601700
     16 O16          8.6810    -1.6390     2.7310 o          1 GKW      -0.633100
     17 N17          9.4370    -3.6950     3.1010 ns         1 GKW      -0.061400
     18 O18         10.5750    -3.4680     2.2900 oh         1 GKW      -0.439100
     19 C19          6.3990    -1.9420     4.2930 ca         1 GKW      -0.024000
     20 C20          5.2820    -2.1700     5.0820 ca         1 GKW      -0.222200
     21 C21          1.9200    -0.0000     3.6050 ca         1 GKW      -0.038500
     22 C22          1.2910     0.0060     2.3750 ca         1 GKW      -0.174500
     23 H1          -0.3610    -0.0020    -1.0210 h1         1 GKW      -0.001967
     24 H2          -0.3610    -0.8830     0.5120 h1         1 GKW      -0.001967
     25 H3          -0.3610     0.8860     0.5090 h1         1 GKW      -0.001967
     26 H4           4.0220     0.0000     0.3790 ha         1 GKW       0.122000
     27 H5           5.1370    -0.0010     2.5770 ha         1 GKW       0.108500
     28 H6           4.9370     0.5030     4.9420 h1         1 GKW       0.036200
     29 H7           3.3610     0.4990     5.7460 h1         1 GKW       0.036200
     30 H8           2.4530    -1.7270     6.6920 h4         1 GKW       0.139000
     31 H9           3.4240    -4.1210     7.0620 ha         1 GKW       0.130000
     32 H10          5.9410    -5.3940     5.9990 ha         1 GKW       0.102000
     33 H11          7.8990    -4.9810     4.5970 ha         1 GKW       0.096000
     34 H12          9.3250    -4.5710     3.5720 hn         1 GKW       0.163500
     35 H13         11.0330    -4.2810     2.1570 ho         1 GKW       0.390000
     36 H14          6.5380    -0.9820     3.8110 ha         1 GKW       0.126000
     37 H15          1.3310     0.0020     4.5150 ha         1 GKW       0.108500
     38 H16          0.2090     0.0060     2.3200 ha         1 GKW       0.122000
@<TRIPOS>BOND
     1     1     2 1   
     2     1    23 1   
     3     1    24 1   
     4     1    25 1   
     5     2     3 1   
     6     3     4 ar  
     7     3    22 ar  
     8     4     5 ar  
     9     4    26 1   
    10     5     6 ar  
    11     5    27 1   
    12     6     7 1   
    13     6    21 ar  
    14     7     8 1   
    15     7    28 1   
    16     7    29 1   
    17     8     9 1   
    18     8    20 1   
    19     9    10 2   
    20     9    30 1   
    21    10    11 1   
    22    10    31 1   
    23    11    12 ar  
    24    11    20 ar  
    25    12    13 ar  
    26    12    32 1   
    27    13    14 ar  
    28    13    33 1   
    29    14    15 1   
    30    14    19 ar  
    31    15    16 2   
    32    15    17 1   
    33    17    18 1   
    34    17    34 1   
    35    18    35 1   
    36    19    20 ar  
    37    19    36 1   
    38    21    22 ar  
    39    21    37 1   
    40    22    38 1   
@<TRIPOS>SUBSTRUCTURE
     1 GKW         1 TEMP              0 ****  ****    0 ROOT
