@<TRIPOS>MOLECULE
molecule
   59    60     1     0     0
SMALL
bcc


@<TRIPOS>ATOM
      1 C10          0.0000     0.0000     0.0000 ca         1 GKY      -0.084300
      2 C16         -4.2050     0.0070     4.8300 ca         1 GKY      -0.088300
      3 C26          1.3820     0.0000     0.0000 ca         1 GKY      -0.124000
      4 C01         -0.0340    -4.4840    -4.7150 c3         1 GKY      -0.094100
      5 C02         -0.1130    -3.0870    -4.0960 c3         1 GKY      -0.084400
      6 C03         -1.5550    -2.7960    -3.6780 c3         1 GKY       0.159300
      7 C05         -3.0180    -0.9860    -3.0070 c3         1 GKY       0.159300
      8 C06         -3.5500    -0.7720    -4.4250 c3         1 GKY      -0.084400
      9 C07         -4.9960    -0.2790    -4.3580 c3         1 GKY      -0.094100
     10 C08         -1.0070    -1.4510    -1.7400 c3         1 GKY       0.163800
     11 C09         -0.7520    -0.0060    -1.3060 c3         1 GKY      -0.031100
     12 C11         -0.6940     0.0020     1.1960 ca         1 GKY      -0.187000
     13 C12         -0.0050     0.0020     2.3980 ca         1 GKY       0.120100
     14 C14         -2.1130     0.0050     3.4980 c3         1 GKY       0.140400
     15 C15         -2.7000     0.0060     4.9110 c3         1 GKY      -0.034100
     16 C17         -4.8940     1.2050     4.7860 ca         1 GKY      -0.122000
     17 C18         -6.2740     1.2070     4.7060 ca         1 GKY      -0.127000
     18 C19         -6.9650     0.0100     4.6690 ca         1 GKY      -0.128000
     19 C20         -6.2760    -1.1880     4.7120 ca         1 GKY      -0.127000
     20 C21         -4.8970    -1.1890     4.7940 ca         1 GKY      -0.122000
     21 C22          1.3860     0.0010     2.3980 ca         1 GKY       0.111100
     22 C24          3.4950     0.0020     3.4980 c3         1 GKY       0.127700
     23 C25          2.0770     0.0000     1.1960 ca         1 GKY      -0.188000
     24 N04         -1.6280    -1.4590    -3.0710 n3         1 GKY      -0.733600
     25 O13         -0.6860     0.0040     3.5750 os         1 GKY      -0.317900
     26 O23          2.0680     0.0020     3.5740 os         1 GKY      -0.314900
     27 H1           1.9220    -0.0010    -0.9390 ha         1 GKY       0.134000
     28 H2          -0.2970    -5.2250    -3.9700 hc         1 GKY       0.033367
     29 H3          -0.7240    -4.5500    -5.5480 hc         1 GKY       0.033367
     30 H4           0.9740    -4.6670    -5.0670 hc         1 GKY       0.033367
     31 H5           0.2070    -2.3510    -4.8240 hc         1 GKY       0.047950
     32 H6           0.5320    -3.0410    -3.2270 hc         1 GKY       0.047950
     33 H7          -2.1980    -2.8330    -4.5480 h1         1 GKY       0.034450
     34 H8          -1.8790    -3.5380    -2.9570 h1         1 GKY       0.034450
     35 H9          -3.0560    -0.0500    -2.4620 h1         1 GKY       0.034450
     36 H10         -3.6270    -1.7240    -2.5000 h1         1 GKY       0.034450
     37 H11         -2.9400    -0.0340    -4.9320 hc         1 GKY       0.047950
     38 H12         -3.5120    -1.7080    -4.9700 hc         1 GKY       0.047950
     39 H13         -5.5960    -0.9930    -3.8060 hc         1 GKY       0.033367
     40 H14         -5.3900    -0.1780    -5.3620 hc         1 GKY       0.033367
     41 H15         -5.0280     0.6820    -3.8590 hc         1 GKY       0.033367
     42 H16         -1.6700    -1.9300    -1.0290 h1         1 GKY       0.038700
     43 H17         -0.0670    -1.9880    -1.7760 h1         1 GKY       0.038700
     44 H18         -0.1660     0.5000    -2.0630 hc         1 GKY       0.055200
     45 H19         -1.6990     0.5060    -1.1800 hc         1 GKY       0.055200
     46 H20         -1.7770     0.0020     1.1930 ha         1 GKY       0.141000
     47 H21         -2.4460     0.8890     2.9680 h1         1 GKY       0.037200
     48 H22         -2.4470    -0.8800     2.9690 h1         1 GKY       0.037200
     49 H23         -2.3670    -0.8780     5.4410 hc         1 GKY       0.063700
     50 H24         -2.3660     0.8910     5.4400 hc         1 GKY       0.063700
     51 H25         -4.3520     2.1430     4.8140 ha         1 GKY       0.132000
     52 H26         -6.8140     2.1450     4.6720 ha         1 GKY       0.130500
     53 H27         -8.0470     0.0100     4.6060 ha         1 GKY       0.130000
     54 H28         -6.8180    -2.1260     4.6840 ha         1 GKY       0.130500
     55 H29         -4.3570    -2.1270     4.8270 ha         1 GKY       0.132000
     56 H30          3.9100     0.0120     4.4990 h1         1 GKY       0.039700
     57 H31          3.8290     0.8810     2.9600 h1         1 GKY       0.039700
     58 H32          3.8290    -0.8880     2.9780 h1         1 GKY       0.039700
     59 H33          3.1600    -0.0000     1.1940 ha         1 GKY       0.139000
@<TRIPOS>BOND
     1     9     8 1
     2     4     5 1
     3     8     7 1
     4     5     6 1
     5     7    24 1
     6     6    24 1
     7    24    10 1
     8    10    11 1
     9    11     1 1
    10     1     3 ar
    11     1    12 ar
    12     3    23 ar
    13    12    13 ar
    14    23    21 ar
    15    13    21 ar
    16    13    25 1
    17    21    26 1
    18    25    14 1
    19    14    15 1
    20    26    22 1
    21    15     2 1
    22    16     2 ar
    23    16    17 ar
    24     2    20 ar
    25    17    18 ar
    26    20    19 ar
    27    18    19 ar
    28     3    27 1
    29     4    28 1
    30     4    29 1
    31     4    30 1
    32     5    31 1
    33     5    32 1
    34     6    33 1
    35     6    34 1
    36     7    35 1
    37     7    36 1
    38     8    37 1
    39     8    38 1
    40     9    39 1
    41     9    40 1
    42     9    41 1
    43    10    42 1
    44    10    43 1
    45    11    44 1
    46    11    45 1
    47    12    46 1
    48    14    47 1
    49    14    48 1
    50    15    49 1
    51    15    50 1
    52    16    51 1
    53    17    52 1
    54    18    53 1
    55    19    54 1
    56    20    55 1
    57    22    56 1
    58    22    57 1
    59    22    58 1
    60    23    59 1
@<TRIPOS>SUBSTRUCTURE
     1 GKY         1 TEMP              0 ****  ****    0 ROOT
