@<TRIPOS>MOLECULE
GL1
   27    27     1     0     0
SMALL
bcc


@<TRIPOS>ATOM
      1 C1         -0.1420    0.2480    0.1610 c3        1 GL1      0.376900
      2 C2          1.4120    0.1220    0.1550 c3        1 GL1      0.081100
      3 C3          1.9100   -0.0040    1.6090 c3        1 GL1      0.082100
      4 C4          1.4430    1.1930    2.4490 c3        1 GL1      0.124100
      5 C5         -0.0940    1.2510    2.3350 c3        1 GL1      0.076100
      6 C6         -0.6660    2.4580    3.0750 c3        1 GL1      0.149400
      7 O1         -0.7480   -0.8130    0.7320 os        1 GL1     -0.559200
      8 O2          1.8860   -0.9670   -0.5900 oh        1 GL1     -0.687800
      9 O3          3.3290   -0.0880    1.6750 oh        1 GL1     -0.635800
     10 O4          2.0320    2.4170    2.0370 oh        1 GL1     -0.620800
     11 O5         -0.4590    1.4090    0.9710 os        1 GL1     -0.489600
     12 O6         -2.0700    2.5640    2.9330 oh        1 GL1     -0.641800
     13 P          -1.5920   -1.8740   -0.3940 p5        1 GL1      1.320900
     14 O1P        -0.3650   -2.5750   -0.9270 o         1 GL1     -0.909833
     15 O2P        -2.5060   -2.6590    0.4890 o         1 GL1     -0.909833
     16 O3P        -2.1940   -0.8680   -1.3310 o         1 GL1     -0.909833
     17 H1         -0.5520    0.5000   -0.8620 h2        1 GL1      0.110700
     18 H2          1.8640    1.0430   -0.3110 h1        1 GL1      0.012700
     19 H3          1.4740   -0.9470    2.0470 h1        1 GL1      0.073700
     20 H4          1.7690    1.0750    3.5170 h1        1 GL1      0.049700
     21 H5         -0.5370    0.2940    2.7320 h1        1 GL1      0.095700
     22 H61        -0.4700    2.3650    4.1760 h1        1 GL1      0.019700
     23 H62        -0.1960    3.4030    2.6900 h1        1 GL1      0.019700
     24 HO2         1.1420   -1.6320   -0.6720 ho        1 GL1      0.508000
     25 HO3         3.5910   -0.5980    0.8960 ho        1 GL1      0.412000
     26 HO4         1.7090    2.5790    1.1410 ho        1 GL1      0.408000
     27 HO6        -2.3100    2.1150    2.1070 ho        1 GL1      0.443000
@<TRIPOS>BOND
     1    1    2 1   
     2    1    7 1   
     3    1   11 1   
     4    1   17 1   
     5    2    3 1   
     6    2    8 1   
     7    2   18 1   
     8    3    4 1   
     9    3    9 1   
    10    3   19 1   
    11    4    5 1   
    12    4   10 1   
    13    4   20 1   
    14    5    6 1   
    15    5   11 1   
    16    5   21 1   
    17    6   12 1   
    18    6   22 1   
    19    6   23 1   
    20    7   13 1   
    21    8   24 1   
    22    9   25 1   
    23   10   26 1   
    24   12   27 1   
    25   13   14 1   
    26   13   15 1   
    27   13   16 1   
@<TRIPOS>SUBSTRUCTURE
     1 GL1         1 TEMP              0 ****  ****    0 ROOT
