@<TRIPOS>MOLECULE
molecule
   27    27     1     0     0
SMALL
bcc


@<TRIPOS>ATOM
      1 C1           0.0000     0.0000     0.0000 c3         1 GL1       0.338900
      2 C2           1.5300     0.0000     0.0000 c3         1 GL1       0.121100
      3 C3           2.0300     0.0000     1.4480 c3         1 GL1       0.119100
      4 C4           1.3780     1.1720     2.1910 c3         1 GL1       0.100100
      5 C5          -0.1400     1.0840     2.0270 c3         1 GL1       0.145100
      6 C6          -0.8030     2.2300     2.7940 c3         1 GL1       0.149400
      7 O1          -0.4740    -1.1530     0.6990 os         1 GL1      -0.538200
      8 O2           2.0070    -1.1680    -0.6720 oh         1 GL1      -0.572800
      9 O3           3.4520     0.1490     1.4660 oh         1 GL1      -0.631800
     10 O4           1.8510     2.4060     1.6440 oh         1 GL1      -0.590800
     11 O5          -0.4830     1.1780     0.6450 os         1 GL1      -0.366600
     12 O6          -2.2230     2.0800     2.7410 oh         1 GL1      -0.537800
     13 P           -1.8840    -1.5530     0.0340 p5         1 GL1       1.132900
     14 O1P         -1.6470    -2.0070    -1.4920 o          1 GL1      -0.898833
     15 O2P         -2.5410    -2.7690     0.8600 o          1 GL1      -0.898833
     16 O3P         -2.7940    -0.3870     0.0660 o          1 GL1      -0.898833
     17 H1          -0.3580    -0.0210    -1.0220 h2         1 GL1       0.125700
     18 H2           1.8910     0.8880    -0.5060 h1         1 GL1       0.031700
     19 H3           1.7520    -0.9310     1.9270 h1         1 GL1       0.081700
     20 H4           1.6310     1.1170     3.2430 h1         1 GL1       0.004700
     21 H5          -0.4880     0.1350     2.4180 h1         1 GL1       0.111700
     22 H61         -0.4750     2.2110     3.8260 h1         1 GL1      -0.004800
     23 H62         -0.5230     3.1750     2.3440 h1         1 GL1      -0.004800
     24 HO2          2.5090    -0.9120    -1.4290 ho         1 GL1       0.374000
     25 HO3          3.8330    -0.5320     1.9950 ho         1 GL1       0.380000
     26 HO4          2.4350     2.8190     2.2590 ho         1 GL1       0.369000
     27 HO6         -2.6280     2.7230     3.3000 ho         1 GL1       0.358000
@<TRIPOS>BOND
     1     1     2 1
     2     1     7 1
     3     1    11 1
     4     1    17 1
     5     2     3 1
     6     2     8 1
     7     2    18 1
     8     3     4 1
     9     3     9 1
    10     3    19 1
    11     4     5 1
    12     4    10 1
    13     4    20 1
    14     5     6 1
    15     5    11 1
    16     5    21 1
    17     6    12 1
    18     6    22 1
    19     6    23 1
    20     7    13 1
    21     8    24 1
    22     9    25 1
    23    10    26 1
    24    12    27 1
    25    13    14 1
    26    13    15 1
    27    13    16 1
@<TRIPOS>SUBSTRUCTURE
     1 GL1         1 TEMP              0 ****  ****    0 ROOT
