@<TRIPOS>MOLECULE
molecule
   29    30     1     0     0
SMALL
bcc


@<TRIPOS>ATOM
      1 C1           0.0000     0.0000     0.0000 c3         1 GL4       0.189200
      2 C2          -0.5270     1.2620    -0.6740 c3         1 GL4       0.115100
      3 O2          -0.0100     2.4140    -0.0070 oh         1 GL4      -0.594800
      4 C3          -2.0590     1.2690    -0.5990 c3         1 GL4       0.106100
      5 O3          -2.5730     2.3580    -1.3680 oh         1 GL4      -0.604800
      6 C4          -2.5820    -0.0570    -1.1630 c3         1 GL4       0.114100
      7 O4          -3.9960    -0.1300    -0.9790 oh         1 GL4      -0.591800
      8 C5          -1.9090    -1.2130    -0.4230 c3         1 GL4       0.103100
      9 C6          -2.4590    -2.5410    -0.9450 c3         1 GL4       0.154400
     10 O6          -1.8340    -3.6230    -0.2530 oh         1 GL4      -0.599800
     11 O5          -0.4990    -1.1680    -0.6360 os         1 GL4      -0.360600
     12 N2           1.4700     0.0000     0.0000 ns         1 GL4      -0.495900
     13 C8           1.8510     0.0000     1.2920 cs         1 GL4       0.605400
     14 S8           3.4850     0.0010     1.8010 s          1 GL4      -0.597400
     15 N1           0.8100     0.0010     2.1310 ns         1 GL4      -0.513500
     16 C7          -0.3650     0.0010     1.4670 c          1 GL4       0.690500
     17 O7          -1.4770     0.0010     1.9460 o          1 GL4      -0.557500
     18 H2          -0.2180     1.2710    -1.7130 h1         1 GL4       0.068700
     19 HO2          0.2860     3.0410    -0.6460 ho         1 GL4       0.424000
     20 H3          -2.3700     1.3700     0.4340 h1         1 GL4       0.088700
     21 HO3         -3.0770     2.9270    -0.8100 ho         1 GL4       0.420000
     22 H4          -2.3450    -0.1180    -2.2190 h1         1 GL4       0.053700
     23 HO4         -4.4290     0.0140    -1.8050 ho         1 GL4       0.414000
     24 H5          -2.1130    -1.1270     0.6380 h1         1 GL4       0.111700
     25 H61         -3.5290    -2.5780    -0.7810 h1         1 GL4       0.038700
     26 H62         -2.2530    -2.6240    -2.0060 h1         1 GL4       0.038700
     27 HO6         -2.2490    -4.4340    -0.4970 ho         1 GL4       0.408000
     28 HN2          2.0690    -0.0050    -0.8020 hn         1 GL4       0.390500
     29 HN1          0.8920     0.0010     3.1280 hn         1 GL4       0.381500
@<TRIPOS>BOND
     1     1     2 1
     2     1    11 1
     3     1    12 1
     4     1    16 1
     5     2     3 1
     6     2     4 1
     7     2    18 1
     8     3    19 1
     9     4     5 1
    10     4     6 1
    11     4    20 1
    12     5    21 1
    13     6     7 1
    14     6     8 1
    15     6    22 1
    16     7    23 1
    17     8     9 1
    18     8    11 1
    19     8    24 1
    20     9    10 1
    21     9    25 1
    22     9    26 1
    23    10    27 1
    24    12    13 1
    25    12    28 1
    26    13    14 2
    27    13    15 1
    28    15    16 1
    29    15    29 1
    30    16    17 2
@<TRIPOS>SUBSTRUCTURE
     1 GL4         1 TEMP              0 ****  ****    0 ROOT
