@<TRIPOS>MOLECULE
GL8
   76    81     1     0     0
SMALL
bcc


@<TRIPOS>ATOM
      1 C1          0.0610   -0.0910   -0.2640 c2        1 GL8     -0.198200
      2 C2          1.3400   -0.3230   -0.5610 c2        1 GL8     -0.134200
      3 C3          2.4330   -0.4670    0.4520 c3        1 GL8      0.168300
      4 C4          2.0360    0.1310    1.7950 c3        1 GL8     -0.123400
      5 C5          0.6180   -0.1770    2.2150 c3        1 GL8      0.140100
      6 C6         -0.4890    0.0130    1.1220 c3        1 GL8      0.006500
      7 C7         -1.2270   -3.3110    2.5980 ca        1 GL8      0.220100
      8 C8         -2.5230   -3.6120    2.1230 ca        1 GL8     -0.203000
      9 C9         -3.2320   -2.7040    1.3530 ca        1 GL8     -0.030000
     10 C10        -3.5250   -0.5300    0.2770 ce        1 GL8      0.437800
     11 C11        -2.2510    1.6450    0.2550 c3        1 GL8     -0.006700
     12 C12        -1.2620    1.2990    1.3530 c3        1 GL8     -0.082400
     13 C13        -0.6800   -2.0660    2.2280 ca        1 GL8      0.067100
     14 C14        -1.3760   -1.1750    1.4000 ca        1 GL8     -0.051300
     15 C15        -2.6860   -1.4440    0.9920 ca        1 GL8     -0.252900
     16 C16        -1.0100   -5.3890    3.7400 c3        1 GL8      0.100700
     17 C18        -5.5130    2.0430    0.0910 c3        1 GL8     -0.100400
     18 C19        -6.5690    2.6900   -0.7820 c3        1 GL8     -0.081400
     19 C20        -7.6470    3.3310    0.0680 c3        1 GL8     -0.079400
     20 C21        -8.7100    3.9730   -0.7980 c3        1 GL8     -0.079400
     21 C22        -9.7880    4.6120    0.0500 c3        1 GL8     -0.076400
     22 C23       -10.8530    5.2480   -0.8180 c3        1 GL8     -0.103400
     23 C24       -11.9280    5.8830    0.0680 c3        1 GL8      0.107000
     24 C25       -14.1760    5.8480   -1.0890 c         1 GL8      0.725100
     25 C26       -15.0050    6.8720   -1.8010 ca        1 GL8     -0.141600
     26 C27       -16.2380    6.7750   -2.4050 ca        1 GL8     -0.060000
     27 C28       -16.7710    7.9360   -3.0000 ca        1 GL8     -0.114500
     28 C29       -16.0770    9.1390   -2.9770 ca        1 GL8     -0.114500
     29 C30       -14.8150    9.2410   -2.3580 ca        1 GL8     -0.060000
     30 C31       -14.2920    8.1070   -1.7780 ca        1 GL8     -0.141600
     31 C32       -13.0030    7.8810   -1.0500 c         1 GL8      0.725100
     32 O1          0.5550   -1.5860    2.6320 os        1 GL8     -0.289900
     33 O2         -0.4620   -4.1150    3.3820 os        1 GL8     -0.275900
     34 O3          2.8340   -1.8200    0.5720 oh        1 GL8     -0.572800
     35 O25       -14.4220    4.6570   -0.8910 o         1 GL8     -0.573000
     36 O32       -12.0980    8.6840   -0.8140 o         1 GL8     -0.573000
     37 N1         -3.3630    0.7430   -0.0360 nh        1 GL8     -0.136100
     38 N2        -12.9980    6.5150   -0.6470 n         1 GL8     -0.528400
     39 H1         -0.6880   -0.0120   -1.0690 ha        1 GL8      0.122000
     40 H2          1.6660   -0.4360   -1.6090 ha        1 GL8      0.155000
     41 H3          3.3650    0.0520    0.0740 h1        1 GL8      0.100700
     42 H4C1        2.1490    1.2450    1.7500 hc        1 GL8      0.086200
     43 H4C2        2.7350   -0.2620    2.5830 hc        1 GL8      0.086200
     44 H5          0.3500    0.4190    3.1320 h1        1 GL8      0.076700
     45 H8         -2.9830   -4.5800    2.3790 ha        1 GL8      0.171000
     46 H9         -4.2510   -2.9680    1.0250 ha        1 GL8      0.152000
     47 H10        -4.5000   -0.9740   -0.0590 h4        1 GL8      0.048800
     48 H111       -1.6920    1.7910   -0.7190 h1        1 GL8      0.093700
     49 H112       -2.7210    2.6380    0.5370 h1        1 GL8      0.093700
     50 H121       -1.7850    1.2440    2.3450 hc        1 GL8      0.084200
     51 H122       -0.5330    2.1560    1.4010 hc        1 GL8      0.084200
     52 H161       -1.9430   -5.2550    4.3380 h1        1 GL8      0.067700
     53 H162       -0.1950   -5.8400    4.3630 h1        1 GL8      0.067700
     54 H163       -1.1990   -6.0010    2.8260 h1        1 GL8      0.067700
     55 H171       -4.9270    0.6470   -1.4770 h1        1 GL8      0.090200
     56 H172       -3.9730    2.1960   -1.4470 h1        1 GL8      0.090200
     57 H181       -5.9870    1.2660    0.7460 hc        1 GL8      0.060700
     58 H182       -5.0530    2.8170    0.7610 hc        1 GL8      0.060700
     59 H191       -6.0970    3.4670   -1.4380 hc        1 GL8      0.051700
     60 H192       -7.0310    1.9190   -1.4550 hc        1 GL8      0.051700
     61 H201       -8.1170    2.5560    0.7290 hc        1 GL8      0.046700
     62 H202       -7.1890    4.1060    0.7380 hc        1 GL8      0.046700
     63 H211       -9.1690    3.1990   -1.4690 hc        1 GL8      0.046200
     64 H212       -8.2410    4.7490   -1.4590 hc        1 GL8      0.046200
     65 H221       -9.3310    5.3900    0.7170 hc        1 GL8      0.044700
     66 H222      -10.2550    3.8370    0.7140 hc        1 GL8      0.044700
     67 H231      -11.3140    4.4710   -1.4820 hc        1 GL8      0.054700
     68 H232      -10.3890    6.0270   -1.4780 hc        1 GL8      0.054700
     69 H241      -12.3770    5.0820    0.7230 h1        1 GL8      0.066700
     70 H242      -11.4440    6.6640    0.7230 h1        1 GL8      0.066700
     71 H28       -17.7560    7.8800   -3.4890 ha        1 GL8      0.148000
     72 H29       -16.5130   10.0340   -3.4480 ha        1 GL8      0.148000
     73 H30       -14.2700   10.1970   -2.3410 ha        1 GL8      0.160500
     74 HA          2.1390   -2.2920    1.0510 ho        1 GL8      0.412000
     75 C17        -4.4450    1.4050   -0.7950 c3        1 GL8     -0.020700
     76 H27       -16.7940    5.8250   -2.4240 ha        1 GL8      0.160500
@<TRIPOS>BOND
     1    1    2 2   
     2    1    6 1   
     3    1   39 1   
     4    2    3 1   
     5    2   40 1   
     6    3    4 1   
     7    3   34 1   
     8    3   41 1   
     9    4    5 1   
    10    4   42 1   
    11    4   43 1   
    12    5    6 1   
    13    5   32 1   
    14    5   44 1   
    15    6   12 1   
    16    6   14 1   
    17    7    8 ar  
    18    7   13 ar  
    19    7   33 1   
    20    8    9 ar  
    21    8   45 1   
    22    9   15 ar  
    23    9   46 1   
    24   10   15 1   
    25   10   37 2   
    26   10   47 1   
    27   11   12 1   
    28   11   37 1   
    29   11   48 1   
    30   11   49 1   
    31   12   50 1   
    32   12   51 1   
    33   13   14 ar  
    34   13   32 1   
    35   14   15 ar  
    36   16   33 1   
    37   16   52 1   
    38   16   53 1   
    39   16   54 1   
    40   17   18 1   
    41   17   57 1   
    42   17   58 1   
    43   17   75 1   
    44   18   19 1   
    45   18   59 1   
    46   18   60 1   
    47   19   20 1   
    48   19   61 1   
    49   19   62 1   
    50   20   21 1   
    51   20   63 1   
    52   20   64 1   
    53   21   22 1   
    54   21   65 1   
    55   21   66 1   
    56   22   23 1   
    57   22   67 1   
    58   22   68 1   
    59   23   38 1   
    60   23   69 1   
    61   23   70 1   
    62   24   25 1   
    63   24   35 2   
    64   24   38 1   
    65   25   26 ar  
    66   25   30 ar  
    67   26   27 ar  
    68   26   76 1   
    69   27   28 ar  
    70   27   71 1   
    71   28   29 ar  
    72   28   72 1   
    73   29   30 ar  
    74   29   73 1   
    75   30   31 1   
    76   31   36 2   
    77   31   38 1   
    78   34   74 1   
    79   37   75 1   
    80   55   75 1   
    81   56   75 1   
@<TRIPOS>SUBSTRUCTURE
     1 GL8         1 TEMP              0 ****  ****    0 ROOT
