@<TRIPOS>MOLECULE
molecule
   76    81     1     0     0
SMALL
bcc


@<TRIPOS>ATOM
      1 C1           0.0000     0.0000     0.0000 c2         1 GL8      -0.184200
      2 C2           1.2910     0.0000     0.0000 c2         1 GL8      -0.124200
      3 C3           2.0960     0.0000     1.2730 c3         1 GL8       0.177300
      4 C4           1.2590     0.6750     2.3640 c3         1 GL8      -0.088400
      5 C5          -0.0600    -0.0720     2.5090 c3         1 GL8       0.160100
      6 C6          -0.8870    -0.0090     1.2130 c3         1 GL8      -0.014500
      7 C7          -1.2110    -3.5010     2.2410 ca         1 GL8       0.193100
      8 C8          -2.3610    -3.9400     1.5870 ca         1 GL8      -0.209000
      9 C9          -3.1400    -3.0940     0.8340 ca         1 GL8      -0.040000
     10 C10         -3.6780    -0.8550    -0.0770 ce         1 GL8       0.425800
     11 C11         -2.5260     1.3090    -0.1440 c3         1 GL8      -0.012700
     12 C12         -1.8160     1.1740     1.1790 c3         1 GL8      -0.082400
     13 C13         -0.8590    -2.1530     2.0930 ca         1 GL8       0.109100
     14 C14         -1.6130    -1.3180     1.2640 ca         1 GL8      -0.086300
     15 C15         -2.7910    -1.7400     0.6610 ca         1 GL8      -0.243900
     16 C16         -1.1010    -5.6250     2.9390 c3         1 GL8       0.091700
     17 C18         -5.4200     1.9650    -0.1250 c3         1 GL8      -0.103400
     18 C19         -6.6510     2.5450    -0.8220 c3         1 GL8      -0.079400
     19 C20         -7.3040     3.5920     0.0820 c3         1 GL8      -0.080400
     20 C21         -8.5350     4.1720    -0.6150 c3         1 GL8      -0.074400
     21 C22         -9.1890     5.2200     0.2880 c3         1 GL8      -0.089400
     22 C23        -10.4210     5.7990    -0.4090 c3         1 GL8      -0.119400
     23 C24        -11.0730     6.8470     0.4950 c3         1 GL8       0.294000
     24 C25        -13.9570     5.8820    -0.6420 c          1 GL8       0.704100
     25 C26        -14.9010     6.6250    -1.5020 ca         1 GL8      -0.167100
     26 C27        -16.2450     6.4850    -1.8100 ca         1 GL8      -0.065500
     27 C28        -16.8480     7.3800    -2.6810 ca         1 GL8      -0.116500
     28 C29        -16.1160     8.4100    -3.2440 ca         1 GL8      -0.116500
     29 C30        -14.7710     8.5610    -2.9460 ca         1 GL8      -0.065500
     30 C31        -14.1560     7.6740    -2.0770 ca         1 GL8      -0.167100
     31 C32        -12.7850     7.5360    -1.5420 c          1 GL8       0.704100
     32 O1           0.1880    -1.4900     2.6360 os         1 GL8      -0.240900
     33 O2          -0.4650    -4.3460     2.9970 os         1 GL8      -0.244900
     34 O3           2.3950    -1.3440     1.6540 oh         1 GL8      -0.572800
     35 O25        -14.2260     4.9030     0.0250 o          1 GL8      -0.603500
     36 O32        -11.8470     8.2620    -1.8010 o          1 GL8      -0.603500
     37 N1          -3.5870     0.3620    -0.3600 nh         1 GL8      -0.091100
     38 N2         -12.7500     6.4710    -0.7210 n          1 GL8      -0.602400
     39 H1          -0.4900     0.0070    -0.9660 ha         1 GL8       0.116000
     40 H2           1.8140    -0.0000    -0.9490 ha         1 GL8       0.144000
     41 H3           3.0130     0.5550     1.1220 h1         1 GL8       0.055700
     42 H4C1         1.0630     1.7040     2.0850 hc         1 GL8       0.074200
     43 H4C2         1.7970     0.6450     3.3030 hc         1 GL8       0.074200
     44 H5          -0.6290     0.2990     3.3530 h1         1 GL8       0.072700
     45 H8          -2.6500    -4.9810     1.6750 ha         1 GL8       0.172000
     46 H9          -4.0250    -3.4810     0.3450 ha         1 GL8       0.146000
     47 H10         -4.5760    -1.3330    -0.4490 h4         1 GL8       0.040800
     48 H111        -2.9430     2.3070    -0.2050 h1         1 GL8       0.097700
     49 H112        -1.7960     1.1890    -0.9350 h1         1 GL8       0.097700
     50 H121        -1.2410     2.0740     1.3600 hc         1 GL8       0.079700
     51 H122        -2.5550     1.0610     1.9620 hc         1 GL8       0.079700
     52 H161        -1.1370    -5.9640     1.9110 h1         1 GL8       0.059033
     53 H162        -0.5380    -6.3350     3.5340 h1         1 GL8       0.059033
     54 H163        -2.1080    -5.5450     3.3300 h1         1 GL8       0.059033
     55 H171        -4.4680     1.3810    -1.9620 h1         1 GL8       0.090200
     56 H172        -5.4750     0.1230    -1.2310 h1         1 GL8       0.090200
     57 H181        -4.7120     2.7590     0.0770 hc         1 GL8       0.060700
     58 H182        -5.7180     1.5010     0.8080 hc         1 GL8       0.060700
     59 H191        -6.3530     3.0090    -1.7550 hc         1 GL8       0.054700
     60 H192        -7.3600     1.7510    -1.0250 hc         1 GL8       0.054700
     61 H201        -7.6020     3.1280     1.0150 hc         1 GL8       0.047200
     62 H202        -6.5960     4.3860     0.2840 hc         1 GL8       0.047200
     63 H211        -8.2370     4.6360    -1.5480 hc         1 GL8       0.053200
     64 H212        -9.2440     3.3780    -0.8180 hc         1 GL8       0.053200
     65 H221        -9.4870     4.7560     1.2210 hc         1 GL8       0.043200
     66 H222        -8.4810     6.0150     0.4900 hc         1 GL8       0.043200
     67 H231       -10.1230     6.2620    -1.3430 hc         1 GL8       0.088700
     68 H232       -11.1290     5.0040    -0.6100 hc         1 GL8       0.088700
     69 H241       -11.3710     6.3840     1.4280 h1         1 GL8       0.085200
     70 H242       -10.3640     7.6410     0.6960 h1         1 GL8       0.085200
     71 H28        -17.8980     7.2720    -2.9210 ha         1 GL8       0.141000
     72 H29        -16.5980     9.1030    -3.9220 ha         1 GL8       0.141000
     73 H30        -14.2030     9.3700    -3.3900 ha         1 GL8       0.147500
     74 HA           3.3280    -1.4800     1.6210 ho         1 GL8       0.410000
     75 C17         -4.7670     0.9170    -1.0290 c3         1 GL8      -0.028700
     76 H27        -16.8230     5.6800    -1.3720 ha         1 GL8       0.147500
@<TRIPOS>BOND
     1     1     2 2
     2     1     6 1
     3     1    39 1
     4     2     3 1
     5     2    40 1
     6     3     4 1
     7     3    34 1
     8     3    41 1
     9     4     5 1
    10     4    42 1
    11     4    43 1
    12     5     6 1
    13     5    32 1
    14     5    44 1
    15     6    12 1
    16     6    14 1
    17     7     8 ar
    18     7    13 ar
    19     7    33 1
    20     8     9 ar
    21     8    45 1
    22     9    15 ar
    23     9    46 1
    24    10    15 1
    25    10    37 2
    26    10    47 1
    27    11    12 1
    28    11    37 1
    29    11    48 1
    30    11    49 1
    31    12    50 1
    32    12    51 1
    33    13    14 ar
    34    13    32 1
    35    14    15 ar
    36    16    33 1
    37    16    52 1
    38    16    53 1
    39    16    54 1
    40    75    17 1
    41    75    37 1
    42    75    55 1
    43    75    56 1
    44    17    18 1
    45    17    57 1
    46    17    58 1
    47    18    19 1
    48    18    59 1
    49    18    60 1
    50    19    20 1
    51    19    61 1
    52    19    62 1
    53    20    21 1
    54    20    63 1
    55    20    64 1
    56    21    22 1
    57    21    65 1
    58    21    66 1
    59    22    23 1
    60    22    67 1
    61    22    68 1
    62    23    38 1
    63    23    69 1
    64    23    70 1
    65    24    25 1
    66    24    35 2
    67    24    38 1
    68    25    26 ar
    69    25    30 ar
    70    26    27 ar
    71    26    76 1
    72    27    28 ar
    73    27    71 1
    74    28    29 ar
    75    28    72 1
    76    29    30 ar
    77    29    73 1
    78    30    31 1
    79    31    36 2
    80    31    38 1
    81    34    74 1
@<TRIPOS>SUBSTRUCTURE
     1 GL8         1 TEMP              0 ****  ****    0 ROOT
