@<TRIPOS>MOLECULE
GLE
   57    56     1     0     0
SMALL
bcc


@<TRIPOS>ATOM
      1 C1          0.2370    0.4260   -0.5050 c3        1 GLE      0.123400
      2 O1         -0.8980   -0.4090   -0.6810 os        1 GLE     -0.430600
      3 C2          1.4580   -0.3610   -0.0040 c3        1 GLE      0.187100
      4 O2          1.2820   -0.7050    1.3340 os        1 GLE     -0.580200
      5 C3          2.7180    0.5280   -0.0980 c3        1 GLE      0.089400
      6 O3          2.6790    1.2270   -1.3530 os        1 GLE     -0.400600
      7 C31         3.7050    2.1670   -1.5080 c3        1 GLE      0.116400
      8 C32         4.9500    1.5430   -2.2270 c3        1 GLE      0.583900
      9 F31         5.9140    2.4870   -2.5030 f         1 GLE     -0.243967
     10 F32         5.6130    0.5830   -1.5110 f         1 GLE     -0.243967
     11 F33         4.6830    0.9700   -3.4410 f         1 GLE     -0.243967
     12 P2          1.6050   -2.2850    1.7600 p5        1 GLE      1.426800
     13 O21         0.2990   -2.8990    2.0670 o         1 GLE     -0.823500
     14 O22         2.6220   -2.7800    0.8180 o         1 GLE     -0.823500
     15 C2P         1.5230   -1.5600    4.2480 c3        1 GLE      0.182700
     16 O23         2.3440   -1.9270    3.1860 os        1 GLE     -0.569200
     17 C11        -1.7560   -0.4740    0.4580 c3        1 GLE      0.138400
     18 C12        -2.4250   -1.8380    0.4470 c3        1 GLE     -0.105400
     19 C13        -3.6930   -1.8140    1.2730 c3        1 GLE     -0.067400
     20 C14        -4.3180   -3.1910    1.3450 c3        1 GLE     -0.080400
     21 C15        -5.5890   -3.1770    2.1660 c3        1 GLE     -0.077400
     22 C16        -6.2120   -4.5550    2.2380 c3        1 GLE     -0.079400
     23 C17        -7.4830   -4.5440    3.0610 c3        1 GLE     -0.078400
     24 C18        -8.1050   -5.9220    3.1320 c3        1 GLE     -0.079400
     25 C19        -9.3760   -5.9120    3.9540 c3        1 GLE     -0.080400
     26 C20        -9.9990   -7.2820    4.0270 c3        1 GLE     -0.091100
     27 H11         0.4480    0.8190   -1.5370 h1        1 GLE      0.040200
     28 H12         0.0150    1.2740    0.1920 h1        1 GLE      0.040200
     29 H2          1.6080   -1.2840   -0.6340 h1        1 GLE      0.079700
     30 H31         3.6430   -0.1050   -0.0610 h1        1 GLE      0.053200
     31 H32         2.7240    1.2700    0.7420 h1        1 GLE      0.053200
     32 H311        3.2950    2.9610   -2.1870 h1        1 GLE      0.071700
     33 H312        4.0580    2.6010   -0.5380 h1        1 GLE      0.071700
     34 H2P1        0.4410   -1.6370    3.9660 h1        1 GLE      0.006700
     35 H2P2        1.7670   -0.5070    4.5570 h1        1 GLE      0.006700
     36 H2P3        1.7360   -2.2350    5.1210 h1        1 GLE      0.006700
     37 H111       -1.1810   -0.3260    1.4090 h1        1 GLE      0.029200
     38 H112       -2.5130    0.3520    0.3520 h1        1 GLE      0.029200
     39 H121       -2.6590   -2.1330   -0.6080 hc        1 GLE      0.078200
     40 H122       -1.7060   -2.5950    0.8680 hc        1 GLE      0.078200
     41 H131       -4.4270   -1.0890    0.8320 hc        1 GLE      0.027700
     42 H132       -3.4540   -1.4570    2.3100 hc        1 GLE      0.027700
     43 H141       -4.5430   -3.5550    0.3080 hc        1 GLE      0.046200
     44 H142       -3.5820   -3.9080    1.7970 hc        1 GLE      0.046200
     45 H151       -5.3620   -2.8130    3.2030 hc        1 GLE      0.033200
     46 H152       -6.3220   -2.4570    1.7170 hc        1 GLE      0.033200
     47 H161       -5.4780   -5.2740    2.6890 hc        1 GLE      0.040200
     48 H162       -6.4380   -4.9200    1.2020 hc        1 GLE      0.040200
     49 H171       -8.2150   -3.8230    2.6110 hc        1 GLE      0.035700
     50 H172       -7.2550   -4.1800    4.0980 hc        1 GLE      0.035700
     51 H181       -8.3320   -6.2860    2.0950 hc        1 GLE      0.039200
     52 H182       -7.3720   -6.6420    3.5810 hc        1 GLE      0.039200
     53 H191      -10.1070   -5.1890    3.5050 hc        1 GLE      0.036700
     54 H192       -9.1470   -5.5470    4.9900 hc        1 GLE      0.036700
     55 H201       -9.2940   -8.0110    4.4950 hc        1 GLE      0.029367
     56 H202      -10.2570   -7.6530    3.0060 hc        1 GLE      0.029367
     57 H203      -10.9340   -7.2530    4.6380 hc        1 GLE      0.029367
@<TRIPOS>BOND
     1    1    2 1   
     2    1    3 1   
     3    1   27 1   
     4    1   28 1   
     5    2   17 1   
     6    3    4 1   
     7    3    5 1   
     8    3   29 1   
     9    4   12 1   
    10    5    6 1   
    11    5   30 1   
    12    5   31 1   
    13    6    7 1   
    14    7    8 1   
    15    7   32 1   
    16    7   33 1   
    17    8    9 1   
    18    8   10 1   
    19    8   11 1   
    20   12   13 1   
    21   12   14 1   
    22   12   16 1   
    23   15   16 1   
    24   15   34 1   
    25   15   35 1   
    26   15   36 1   
    27   17   18 1   
    28   17   37 1   
    29   17   38 1   
    30   18   19 1   
    31   18   39 1   
    32   18   40 1   
    33   19   20 1   
    34   19   41 1   
    35   19   42 1   
    36   20   21 1   
    37   20   43 1   
    38   20   44 1   
    39   21   22 1   
    40   21   45 1   
    41   21   46 1   
    42   22   23 1   
    43   22   47 1   
    44   22   48 1   
    45   23   24 1   
    46   23   49 1   
    47   23   50 1   
    48   24   25 1   
    49   24   51 1   
    50   24   52 1   
    51   25   26 1   
    52   25   53 1   
    53   25   54 1   
    54   26   55 1   
    55   26   56 1   
    56   26   57 1   
@<TRIPOS>SUBSTRUCTURE
     1 GLE         1 TEMP              0 ****  ****    0 ROOT
