@<TRIPOS>MOLECULE
molecule
   57    56     1     0     0
SMALL
bcc


@<TRIPOS>ATOM
      1 C1           0.0000     0.0000     0.0000 c3         1 GLE       0.117400
      2 O1          -0.4760    -1.1650     0.6750 os         1 GLE      -0.341600
      3 C2           1.5300     0.0000     0.0000 c3         1 GLE       0.184100
      4 O2           2.0070     0.0000     1.3460 os         1 GLE      -0.524200
      5 C3           2.0410     1.2470    -0.7230 c3         1 GLE       0.116400
      6 O3           3.4700     1.2470    -0.7230 os         1 GLE      -0.316600
      7 C31          3.8840     2.4300    -1.4090 c3         1 GLE       0.075400
      8 C32          5.4120     2.4910    -1.4450 c3         1 GLE       0.621900
      9 F31          5.8170     3.6490    -2.1160 f          1 GLE      -0.223967
     10 F32          5.9100     2.5100    -0.1380 f          1 GLE      -0.223967
     11 F33          5.9070     1.3670    -2.1150 f          1 GLE      -0.223967
     12 P2           2.8870    -1.3350     1.5290 p5         1 GLE       1.273800
     13 O21          2.0420    -2.5220     1.2710 o          1 GLE      -0.812000
     14 O22          4.1150    -1.3140     0.4880 o          1 GLE      -0.812000
     15 C2P          4.2280    -2.6000     3.1300 c3         1 GLE       0.147700
     16 O23          3.4600    -1.4000     3.0310 os         1 GLE      -0.550200
     17 C11         -1.9030    -1.1060     0.6420 c3         1 GLE       0.124400
     18 C12         -2.4810    -2.3320     1.3530 c3         1 GLE      -0.079400
     19 C13         -4.0090    -2.2690     1.3170 c3         1 GLE      -0.083400
     20 C14         -4.5860    -3.4950     2.0280 c3         1 GLE      -0.079400
     21 C15         -6.1140    -3.4330     1.9910 c3         1 GLE      -0.082400
     22 C16         -6.6930    -4.6580     2.7010 c3         1 GLE      -0.082400
     23 C17         -8.2210    -4.5960     2.6670 c3         1 GLE      -0.082400
     24 C18         -8.7990    -5.8210     3.3760 c3         1 GLE      -0.081400
     25 C19        -10.3260    -5.7580     3.3410 c3         1 GLE      -0.084400
     26 C20        -10.9040    -6.9840     4.0510 c3         1 GLE      -0.092100
     27 H11         -0.3610     0.8850     0.5090 h1         1 GLE       0.011700
     28 H12         -0.3610    -0.0020    -1.0210 h1         1 GLE       0.011700
     29 H2           1.8910    -0.8850    -0.5100 h1         1 GLE       0.104700
     30 H31          1.6800     2.1330    -0.2150 h1         1 GLE       0.015200
     31 H32          1.6800     1.2450    -1.7450 h1         1 GLE       0.015200
     32 H311         3.5000     3.3010    -0.8920 h1         1 GLE       0.041700
     33 H312         3.5000     2.4130    -2.4220 h1         1 GLE       0.041700
     34 H2P1         4.6430    -2.6820     4.1270 h1         1 GLE       0.029700
     35 H2P2         5.0320    -2.5750     2.4050 h1         1 GLE       0.029700
     36 H2P3         3.5910    -3.4540     2.9330 h1         1 GLE       0.029700
     37 H111        -2.2400    -1.0930    -0.3870 h1         1 GLE       0.008700
     38 H112        -2.2390    -0.2070     1.1440 h1         1 GLE       0.008700
     39 H121        -2.1450    -3.2320     0.8520 hc         1 GLE       0.062700
     40 H122        -2.1440    -2.3450     2.3820 hc         1 GLE       0.062700
     41 H131        -4.3450    -1.3700     1.8190 hc         1 GLE       0.033700
     42 H132        -4.3460    -2.2570     0.2880 hc         1 GLE       0.033700
     43 H141        -4.2490    -4.3940     1.5270 hc         1 GLE       0.044700
     44 H142        -4.2490    -3.5070     3.0570 hc         1 GLE       0.044700
     45 H151        -6.4510    -3.4200     0.9620 hc         1 GLE       0.037700
     46 H152        -6.4510    -2.5330     2.4920 hc         1 GLE       0.037700
     47 H161        -6.3570    -5.5570     2.2000 hc         1 GLE       0.041700
     48 H162        -6.3550    -4.6710     3.7310 hc         1 GLE       0.041700
     49 H171        -8.5580    -4.5830     1.6370 hc         1 GLE       0.038700
     50 H172        -8.5570    -3.6960     3.1680 hc         1 GLE       0.038700
     51 H181        -8.4620    -5.8340     4.4060 hc         1 GLE       0.041200
     52 H182        -8.4630    -6.7210     2.8750 hc         1 GLE       0.041200
     53 H191       -10.6620    -4.8590     3.8430 hc         1 GLE       0.038700
     54 H192       -10.6630    -5.7450     2.3120 hc         1 GLE       0.038700
     55 H201       -10.5670    -6.9970     5.0810 hc         1 GLE       0.031033
     56 H202       -11.9860    -6.9390     4.0260 hc         1 GLE       0.031033
     57 H203       -10.5680    -7.8830     3.5500 hc         1 GLE       0.031033
@<TRIPOS>BOND
     1     1     2 1
     2     1     3 1
     3     1    27 1
     4     1    28 1
     5     2    17 1
     6     3     4 1
     7     3     5 1
     8     3    29 1
     9     4    12 1
    10     5     6 1
    11     5    30 1
    12     5    31 1
    13     6     7 1
    14     7     8 1
    15     7    32 1
    16     7    33 1
    17     8     9 1
    18     8    10 1
    19     8    11 1
    20    12    13 1
    21    12    14 1
    22    12    16 1
    23    15    16 1
    24    15    34 1
    25    15    35 1
    26    15    36 1
    27    17    18 1
    28    17    37 1
    29    17    38 1
    30    18    19 1
    31    18    39 1
    32    18    40 1
    33    19    20 1
    34    19    41 1
    35    19    42 1
    36    20    21 1
    37    20    43 1
    38    20    44 1
    39    21    22 1
    40    21    45 1
    41    21    46 1
    42    22    23 1
    43    22    47 1
    44    22    48 1
    45    23    24 1
    46    23    49 1
    47    23    50 1
    48    24    25 1
    49    24    51 1
    50    24    52 1
    51    25    26 1
    52    25    53 1
    53    25    54 1
    54    26    55 1
    55    26    56 1
    56    26    57 1
@<TRIPOS>SUBSTRUCTURE
     1 GLE         1 TEMP              0 ****  ****    0 ROOT
