@<TRIPOS>MOLECULE
GLI
   89    89     1     0     0
SMALL
bcc


@<TRIPOS>ATOM
      1 N            0.0000     0.0000     0.0000 nz         1 GLI       0.097400
      2 CA1          1.4690     0.0000     0.0000 c3         1 GLI      -0.155500
      3 CB1          1.9790     0.0000     1.4420 c3         1 GLI       0.004900
      4 C1           1.9720    -1.2300    -0.7110 c          1 GLI       0.537100
      5 O1           1.3170    -2.2490    -0.6950 o          1 GLI      -0.651100
      6 N2           3.1500    -1.1950    -1.3660 ns         1 GLI      -0.069900
      7 CA2          3.6390    -2.3900    -2.0570 c3         1 GLI      -0.077300
      8 CB2          3.1290    -2.3900    -3.5000 c3         1 GLI      -0.007100
      9 C2           5.1450    -2.3910    -2.0570 c          1 GLI       0.560100
     10 O2           5.7510    -1.4800    -1.5310 o          1 GLI      -0.656100
     11 N3           5.8180    -3.4000    -2.6410 ns         1 GLI      -0.137900
     12 CA3          7.2840    -3.3990    -2.6410 c3         1 GLI       0.001700
     13 CB3          7.7930    -4.1210    -1.3920 c3         1 GLI       0.011900
     14 CG3          7.2920    -3.4110    -0.1620 ca         1 GLI      -0.080300
     15 CDV          6.0840    -3.7770     0.4030 ca         1 GLI      -0.092000
     16 CDW          8.0410    -2.3990     0.4070 ca         1 GLI      -0.092000
     17 CEV          5.6220    -3.1270     1.5320 ca         1 GLI      -0.096500
     18 CEW          7.5770    -1.7450     1.5330 ca         1 GLI      -0.096500
     19 CZ3          6.3690    -2.1100     2.0970 ca         1 GLI      -0.108000
     20 C3           7.7940    -4.1190    -3.8900 c3         1 GLI       0.172100
     21 O3           7.3180    -5.4670    -3.8920 oh         1 GLI      -0.596800
     22 CX4          7.2840    -3.3990    -5.1400 c3         1 GLI      -0.036400
     23 CA4          7.7950    -4.1180    -6.3880 c3         1 GLI      -0.097400
     24 C4           7.2910    -3.4080    -7.6190 c          1 GLI       0.573100
     25 O4           6.5940    -2.4220    -7.5070 o          1 GLI      -0.669100
     26 N5           7.6170    -3.8680    -8.8430 ns         1 GLI      -0.169900
     27 CA5          7.1290    -3.1760   -10.0390 c3         1 GLI      -0.051300
     28 CB5          8.1370    -2.1030   -10.4540 c3         1 GLI      -0.059700
     29 CGF          9.4460    -2.7700   -10.8810 c3         1 GLI      -0.005600
     30 CGG          7.5690    -1.2980   -11.6240 c3         1 GLI      -0.005600
     31 C5           6.9620    -4.1690   -11.1590 c          1 GLI       0.572100
     32 O5           7.6290    -5.1820   -11.1760 o          1 GLI      -0.657100
     33 N6           6.0720    -3.9320   -12.1430 ns         1 GLI      -0.168900
     34 CA6          5.9930    -4.8360   -13.2930 c3         1 GLI      -0.028300
     35 CB6          4.9830    -5.9480   -12.9970 c3         1 GLI      -0.065700
     36 CGP          3.6080    -5.3320   -12.7360 c3         1 GLI      -0.003600
     37 CGQ          4.8990    -6.8930   -14.1980 c3         1 GLI      -0.003600
     38 C6           5.5480    -4.0660   -14.5090 c          1 GLI       0.700100
     39 O6           5.3220    -2.8830   -14.4240 o          1 GLI      -0.594000
     40 OM6          5.4040    -4.6930   -15.6860 os         1 GLI      -0.411900
     41 CM6          4.9760    -3.9520   -16.8580 c3         1 GLI       0.273700
     42 HN1         -0.3340     0.8620     0.3840 hn         1 GLI       0.227800
     43 HN2A        -0.3340    -0.7630     0.5540 hn         1 GLI       0.227800
     44 HA1          1.8300     0.8850    -0.5100 hx         1 GLI       0.090700
     45 HB11         1.8460    -0.9850     1.8720 hc         1 GLI       0.043700
     46 HB12         1.4210     0.7250     2.0230 hc         1 GLI       0.043700
     47 HB13         3.0310     0.2600     1.4540 hc         1 GLI       0.043700
     48 HN2          3.6740    -0.3440    -1.4070 hn         1 GLI       0.199500
     49 HA2          3.2780    -3.2750    -1.5470 h1         1 GLI       0.077700
     50 HB21         3.7050    -1.6850    -4.0860 hc         1 GLI       0.022033
     51 HB22         2.0840    -2.1030    -3.5140 hc         1 GLI       0.022033
     52 HB23         3.2360    -3.3820    -3.9210 hc         1 GLI       0.022033
     53 HN3          5.3190    -4.1770    -3.0270 hn         1 GLI       0.191500
     54 HA3          7.6440    -2.3770    -2.6400 h1         1 GLI       0.072700
     55 HB31         8.8770    -4.1220    -1.3920 hc         1 GLI       0.033200
     56 HB32         7.4320    -5.1420    -1.3930 hc         1 GLI       0.033200
     57 HD31         5.4990    -4.5740    -0.0400 ha         1 GLI       0.104500
     58 HD32         8.9880    -2.1130    -0.0350 ha         1 GLI       0.104500
     59 HE31         4.6760    -3.4140     1.9740 ha         1 GLI       0.100000
     60 HE32         8.1640    -0.9500     1.9770 ha         1 GLI       0.100000
     61 HZ3          6.0070    -1.5990     2.9810 ha         1 GLI       0.097000
     62 H3           8.8770    -4.1190    -3.8900 h1         1 GLI       0.017700
     63 HO3          8.0450    -6.0570    -4.0020 ho         1 GLI       0.405000
     64 HX41         7.6440    -2.3770    -5.1390 hc         1 GLI       0.036700
     65 HX42         6.2010    -3.4000    -5.1400 hc         1 GLI       0.036700
     66 HA41         7.4350    -5.1400    -6.3880 hc         1 GLI       0.034200
     67 HA42         8.8780    -4.1170    -6.3880 hc         1 GLI       0.034200
     68 HN5          8.1540    -4.7080    -8.9350 hn         1 GLI       0.200500
     69 HA5          6.1740    -2.7120    -9.8230 h1         1 GLI       0.063700
     70 HB5          8.3250    -1.4410    -9.6170 hc         1 GLI       0.044700
     71 H511         9.8250    -3.3760   -10.0660 hc         1 GLI       0.011533
     72 H512         9.2660    -3.3990   -11.7450 hc         1 GLI       0.011533
     73 H513        10.1740    -2.0090   -11.1340 hc         1 GLI       0.011533
     74 H521         8.0740    -0.3410   -11.6840 hc         1 GLI       0.011533
     75 H522         7.7220    -1.8450   -12.5470 hc         1 GLI       0.011533
     76 H523         6.5080    -1.1370   -11.4720 hc         1 GLI       0.011533
     77 HN6          5.4410    -3.1590   -12.0700 hn         1 GLI       0.202500
     78 HA6          6.9670    -5.2730   -13.4780 h1         1 GLI       0.080700
     79 HB6          5.3020    -6.5020   -12.1230 hc         1 GLI       0.047700
     80 H611         3.3740    -4.6230   -13.5210 hc         1 GLI       0.011200
     81 H612         2.8590    -6.1140   -12.7200 hc         1 GLI       0.011200
     82 H613         3.6170    -4.8210   -11.7800 hc         1 GLI       0.011200
     83 H621         4.6250    -7.8840   -13.8590 hc         1 GLI       0.011200
     84 H622         4.1510    -6.5290   -14.8920 hc         1 GLI       0.011200
     85 H623         5.8620    -6.9330   -14.6930 hc         1 GLI       0.011200
     86 HM61         5.6970    -3.1730   -17.0750 h1         1 GLI       0.003367
     87 HM62         4.9050    -4.6240   -17.7050 h1         1 GLI       0.003367
     88 HM63         4.0080    -3.5050   -16.6690 h1         1 GLI       0.003367
     89 HN31        -0.3340    -0.0960    -0.9390 hn         1 GLI       0.227800
@<TRIPOS>BOND
     1     1     2 1   
     2     1    42 1   
     3     1    43 1   
     4     1    89 1   
     5     2     3 1   
     6     2     4 1   
     7     2    44 1   
     8     3    45 1   
     9     3    46 1   
    10     3    47 1   
    11     4     5 2   
    12     4     6 1   
    13     6     7 1   
    14     6    48 1   
    15     7     8 1   
    16     7     9 1   
    17     7    49 1   
    18     8    50 1   
    19     8    51 1   
    20     8    52 1   
    21     9    10 2   
    22     9    11 1   
    23    11    12 1   
    24    11    53 1   
    25    12    13 1   
    26    12    20 1   
    27    12    54 1   
    28    13    14 1   
    29    13    55 1   
    30    13    56 1   
    31    14    15 ar  
    32    14    16 ar  
    33    15    17 ar  
    34    15    57 1   
    35    16    18 ar  
    36    16    58 1   
    37    17    19 ar  
    38    17    59 1   
    39    18    19 ar  
    40    18    60 1   
    41    19    61 1   
    42    20    21 1   
    43    20    22 1   
    44    20    62 1   
    45    21    63 1   
    46    22    23 1   
    47    22    64 1   
    48    22    65 1   
    49    23    24 1   
    50    23    66 1   
    51    23    67 1   
    52    24    25 2   
    53    24    26 1   
    54    26    27 1   
    55    26    68 1   
    56    27    28 1   
    57    27    31 1   
    58    27    69 1   
    59    28    29 1   
    60    28    30 1   
    61    28    70 1   
    62    29    71 1   
    63    29    72 1   
    64    29    73 1   
    65    30    74 1   
    66    30    75 1   
    67    30    76 1   
    68    31    32 2   
    69    31    33 1   
    70    33    34 1   
    71    33    77 1   
    72    34    35 1   
    73    34    38 1   
    74    34    78 1   
    75    35    36 1   
    76    35    37 1   
    77    35    79 1   
    78    36    80 1   
    79    36    81 1   
    80    36    82 1   
    81    37    83 1   
    82    37    84 1   
    83    37    85 1   
    84    38    39 2   
    85    38    40 1   
    86    40    41 1   
    87    41    86 1   
    88    41    87 1   
    89    41    88 1   
@<TRIPOS>SUBSTRUCTURE
     1 GLI         1 TEMP              0 ****  ****    0 ROOT
