@<TRIPOS>MOLECULE
GLL
   16    17     1     0     0
SMALL
bcc


@<TRIPOS>ATOM
      1 C1           0.0000     0.0000     0.0000 c          1 GLL       0.625000
      2 O1          -0.6640     0.0000    -1.0190 o          1 GLL      -0.712500
      3 N1           1.3380     0.0000     0.0000 ns         1 GLL      -0.228400
      4 N2          -0.5430     0.0060     1.2240 ns         1 GLL      -0.228400
      5 C2           1.8250     0.0000     1.3860 c3         1 GLL       0.059100
      6 C3           0.5270     0.0000     2.2310 c3         1 GLL       0.059100
      7 N1'          2.4400     1.2980     1.6920 ns         1 GLL      -0.228400
      8 N2'          0.5590     1.2990     2.9170 ns         1 GLL      -0.228400
      9 C1'          1.6650     1.9620     2.5590 c          1 GLL       0.625000
     10 O1'          1.9420     3.0670     2.9820 o          1 GLL      -0.712500
     11 HN1          1.9160    -0.0000    -0.8170 hn         1 GLL       0.217500
     12 HN2         -1.5240     0.0120     1.4220 hn         1 GLL       0.217500
     13 H2           2.4710    -0.8400     1.6090 h2         1 GLL       0.050700
     14 H3           0.4670    -0.8400     2.9120 h2         1 GLL       0.050700
     15 HN1'         3.3040     1.6340     1.3130 hn         1 GLL       0.217500
     16 HN2'        -0.1370     1.6350     3.5530 hn         1 GLL       0.217500
@<TRIPOS>BOND
     1     1     2 2   
     2     1     3 1   
     3     1     4 1   
     4     3     5 1   
     5     3    11 1   
     6     4     6 1   
     7     4    12 1   
     8     5     6 1   
     9     5     7 1   
    10     5    13 1   
    11     6     8 1   
    12     6    14 1   
    13     7     9 1   
    14     7    15 1   
    15     8     9 1   
    16     8    16 1   
    17     9    10 2   
@<TRIPOS>SUBSTRUCTURE
     1 GLL         1 TEMP              0 ****  ****    0 ROOT
