@<TRIPOS>MOLECULE
GLV
    6     5     1     0     0
SMALL
bcc


@<TRIPOS>ATOM
      1 C1          0.0110   -0.0030    0.0190 c         1 GLV      0.472900
      2 O1          0.9690    0.7200   -0.2710 o         1 GLV     -0.599100
      3 C2         -0.7730    0.0230    1.3280 c         1 GLV      0.838600
      4 O2         -0.3830   -0.7450    2.2490 o         1 GLV     -0.821300
      5 O3         -1.7900    0.7680    1.3750 o         1 GLV     -0.821300
      6 H1         -0.3480   -0.7630   -0.7200 h4        1 GLV     -0.068800
@<TRIPOS>BOND
     1    1    2 2   
     2    1    3 1   
     3    1    6 1   
     4    3    4 1   
     5    3    5 1   
@<TRIPOS>SUBSTRUCTURE
     1 GLV         1 TEMP              0 ****  ****    0 ROOT
