@<TRIPOS>MOLECULE
molecule
    6     5     1     0     0
SMALL
bcc


@<TRIPOS>ATOM
      1 C1           0.0000     0.0000     0.0000 c          1 GLV       0.480900
      2 O1           1.2070     0.0000     0.0000 o          1 GLV      -0.571100
      3 C2          -0.7460     0.0000     1.2890 c          1 GLV       0.784600
      4 O2          -0.1410     0.0000     2.3400 o          1 GLV      -0.820800
      5 O3          -2.0920     0.0000     1.2890 o          1 GLV      -0.820800
      6 H1          -0.5410     0.0000    -0.9380 h4         1 GLV      -0.053800
@<TRIPOS>BOND
     1     1     2 2
     2     1     3 1
     3     1     6 1
     4     3     4 1
     5     3     5 1
@<TRIPOS>SUBSTRUCTURE
     1 GLV         1 TEMP              0 ****  ****    0 ROOT
