@<TRIPOS>MOLECULE
GM0
   31    28     1     0     0
SMALL
bcc


@<TRIPOS>ATOM
      1 P           0.3240    0.7370    1.3680 p5        1 GM0      1.940000
      2 C1         -1.6250   -1.7450    6.6570 c3        1 GM0      0.299000
      3 O1          1.3610   -0.3280    1.4790 o         1 GM0     -0.867000
      4 C2         -1.4520   -1.4300    5.2640 c1        1 GM0     -0.428000
      5 O2          4.0850   -1.0870    2.5410 oh        1 GM0     -0.462500
      6 C3         -1.3170   -1.1750    4.0990 c1        1 GM0      0.058000
      7 O3          2.5020   -2.5510    0.8430 oh        1 GM0     -0.462500
      8 C4         -1.2230   -0.9390    2.6540 c3        1 GM0      0.257000
      9 O4         -0.8690    0.4110    2.4500 os        1 GM0     -0.756000
     10 C5         -2.5150   -1.2730    2.0090 c2        1 GM0     -0.557000
     11 O5         -1.4620   -3.1210    6.9580 oh        1 GM0     -0.371000
     12 C6         -2.8550   -2.5360    1.5680 c2        1 GM0      0.208000
     13 O6         -1.9040   -3.5400    1.7680 oh        1 GM0     -0.315000
     14 C7         -4.0590   -2.8990    0.9740 c2        1 GM0     -0.516000
     15 O7         -4.2530   -4.2080    0.5640 oh        1 GM0     -0.289000
     16 O8          0.6580    2.1720    1.4410 o         1 GM0     -0.867000
     17 O9         -0.5420    0.4370    0.0240 oh        1 GM0     -0.834000
     18 H2         -0.9120   -1.1980    7.3390 h2        1 GM0      0.124000
     19 HO2         3.3170   -0.5650    2.2650 ho        1 GM0      0.226500
     20 H3          3.7950   -1.9920    2.3880 ho        1 GM0      0.226500
     21 HO3         2.6190   -1.6800    0.4470 ho        1 GM0      0.226500
     22 H4          1.7150   -2.4260    1.3880 ho        1 GM0      0.226500
     23 H5         -0.3870   -1.6030    2.2600 h1        1 GM0      0.100000
     24 H6         -3.2420   -0.4640    1.9190 ha        1 GM0      0.117000
     25 HO6        -1.2750   -0.1590    0.1610 ho        1 GM0      0.254000
     26 H7         -2.1570   -4.2810    1.2010 ho        1 GM0      0.196000
     27 H7A        -4.8670   -2.2120    0.7470 h4        1 GM0      0.108000
     28 HO7        -4.5900   -4.6800    1.3440 ho        1 GM0      0.117000
     29 H1         -1.8060   -3.6340    6.2180 ho        1 GM0      0.207000
     30 O10        -2.9230   -1.4570    7.1510 oh        1 GM0     -0.371000
     31 H15        -3.5570   -1.6160    6.4430 ho        1 GM0      0.207000
@<TRIPOS>BOND
     1    1    3 1   
     2    1    9 1   
     3    1   16 1   
     4    1   17 1   
     5    2    4 1   
     6    2   11 1   
     7    2   18 1   
     8    2   30 1   
     9    4    6 1   
    10    5   19 1   
    11    5   20 1   
    12    6    8 1   
    13    7   21 1   
    14    7   22 1   
    15    8    9 1   
    16    8   10 1   
    17    8   23 1   
    18   10   12 1   
    19   10   24 1   
    20   11   29 1   
    21   12   13 1   
    22   12   14 1   
    23   13   26 1   
    24   14   15 1   
    25   14   27 1   
    26   15   28 1   
    27   17   25 1   
    28   30   31 1   
@<TRIPOS>SUBSTRUCTURE
     1 GM0         1 TEMP              0 ****  ****    0 ROOT
