@<TRIPOS>MOLECULE
molecule
   31    31     1     0     0
SMALL
bcc


@<TRIPOS>ATOM
      1 P            0.0000     0.0000     0.0000 p5         1 GM0       1.166900
      2 C1          -0.7560    -2.2720     5.0150 c3         1 GM0       0.325900
      3 O1           1.6100     0.0000     0.0000 o          1 GM0      -0.902500
      4 C2           0.6290    -1.7420     4.6330 c3         1 GM0       0.092100
      5 O2           1.3920    -2.7900     4.0330 oh         1 GM0      -0.545800
      6 C3           0.4690    -0.5890     3.6370 c3         1 GM0       0.133100
      7 O3           1.7580    -0.1360     3.2200 oh         1 GM0      -0.534800
      8 C4          -0.3190    -1.0850     2.4200 c3         1 GM0       0.216100
      9 O4          -0.5370     0.0000     1.5170 os         1 GM0      -0.565200
     10 C5          -1.6670    -1.6410     2.8870 c3         1 GM0       0.132100
     11 O5          -1.4470    -2.6880     3.8350 os         1 GM0      -0.421600
     12 C6          -2.4350    -2.1930     1.6850 c3         1 GM0       0.183100
     13 O6          -1.6260    -3.1560     1.0050 oh         1 GM0      -0.558800
     14 C7          -3.7250    -2.8600     2.1670 c3         1 GM0       0.088400
     15 O7          -4.4980    -3.2730     1.0380 oh         1 GM0      -0.609800
     16 O8          -0.5370     1.3140    -0.7600 o          1 GM0      -0.902500
     17 O9          -0.4930    -1.2090    -0.6980 o          1 GM0      -0.902500
     18 H2           1.1340    -1.3830     5.5220 h1         1 GM0      -0.000300
     19 HO2          2.0680    -3.0670     4.6280 ho         1 GM0       0.368000
     20 H3          -0.0700     0.2230     4.1100 h1         1 GM0       0.032700
     21 HO3          1.9640     0.6730     3.6570 ho         1 GM0       0.367000
     22 H4           0.2400    -1.8680     1.9240 h1         1 GM0       0.104700
     23 H5          -2.2400    -0.8480     3.3540 h1         1 GM0       0.039700
     24 H6          -2.6790    -1.3830     1.0080 h1         1 GM0       0.107700
     25 HO6         -2.0810    -3.4630     0.2380 ho         1 GM0       0.410000
     26 H7          -3.4800    -3.7240     2.7720 h1         1 GM0       0.012200
     27 H7A         -4.2970    -2.1550     2.7580 h1         1 GM0       0.012200
     28 HO7         -5.3540    -3.5460     1.3250 ho         1 GM0       0.369000
     29 H1          -0.6450    -3.1170     5.6830 h2         1 GM0       0.027700
     30 O10         -1.5000    -1.2380     5.6630 oh         1 GM0      -0.625800
     31 H15         -1.7570    -1.5270     6.5230 ho         1 GM0       0.381000
@<TRIPOS>BOND
     1     1     3 1
     2     1     9 1
     3     1    16 1
     4     1    17 1
     5     2     4 1
     6     2    11 1
     7     2    29 1
     8     2    30 1
     9     4     5 1
    10     4     6 1
    11     4    18 1
    12     5    19 1
    13     6     7 1
    14     6     8 1
    15     6    20 1
    16     7    21 1
    17     8     9 1
    18     8    10 1
    19     8    22 1
    20    10    11 1
    21    10    12 1
    22    10    23 1
    23    12    13 1
    24    12    14 1
    25    12    24 1
    26    13    25 1
    27    14    15 1
    28    14    26 1
    29    14    27 1
    30    15    28 1
    31    30    31 1
@<TRIPOS>SUBSTRUCTURE
     1 GM0         1 TEMP              0 ****  ****    0 ROOT
