@<TRIPOS>MOLECULE
molecule
   13    12     1     0     0
SMALL
bcc


@<TRIPOS>ATOM
      1 C1           0.0000     0.0000     0.0000 c          1 GM1       0.475100
      2 N1           1.3470     0.0000     0.0000 nz         1 GM1      -0.677400
      3 O1          -0.6060     0.0000     1.0520 o          1 GM1      -0.353100
      4 C2          -0.7540     0.0010    -1.3030 c3         1 GM1       0.024800
      5 N2          -2.1980     0.0020    -1.0340 nz         1 GM1      -0.798600
      6 HN11         1.6810    -0.0030     0.9440 hn         1 GM1       0.508800
      7 HN12         1.6810     0.8190    -0.4690 hn         1 GM1       0.508800
      8 H21         -0.4940    -0.8830    -1.8720 hx         1 GM1       0.161700
      9 H22         -0.4920     0.8860    -1.8710 hx         1 GM1       0.161700
     10 HN21        -2.4410    -0.8150    -0.5100 hn         1 GM1       0.492800
     11 HN22        -2.4400     0.8190    -0.5090 hn         1 GM1       0.492800
     12 H13          1.6810    -0.7660    -0.5520 hn         1 GM1       0.508800
     13 H23         -2.6990     0.0780    -1.8980 hn         1 GM1       0.492800
@<TRIPOS>BOND
     1     1     2 1
     2     1     3 2
     3     1     4 1
     4     2     6 1
     5     2     7 1
     6     4     5 1
     7     4     8 1
     8     4     9 1
     9     5    10 1
    10     5    11 1
    11    12     2 1
    12    13     5 1
@<TRIPOS>SUBSTRUCTURE
     1 GM1         1 TEMP              0 ****  ****    0 ROOT
