@<TRIPOS>MOLECULE
GM2
  138   110     1     0     0
SMALL
bcc


@<TRIPOS>ATOM
      1 C1         -0.9830   -1.5520   -0.6210 c3        1 GM2      0.335900
      2 O1         -2.0090   -1.8610   -1.5390 os        1 GM2     -0.421600
      3 C2         -0.0120   -2.7490   -0.5700 c3        1 GM2      0.129100
      4 O5         -0.3820   -0.4290   -1.2620 os        1 GM2     -0.451600
      5 CB1        -3.1630   -1.0190   -1.4100 c3        1 GM2      0.125400
      6 O2         -0.6410   -3.7670    0.1880 oh        1 GM2     -0.608800
      7 C3          1.2900   -2.2960    0.1110 c3        1 GM2      0.069100
      8 O3          2.1900   -3.3890    0.0130 oh        1 GM2     -0.602800
      9 C4          1.8540   -1.0570   -0.6030 c3        1 GM2      0.080100
     10 O4          2.9820   -0.5740    0.1050 oh        1 GM2     -0.587800
     11 C5          0.7860    0.0510   -0.5940 c3        1 GM2      0.150100
     12 C6          1.2570    1.2800   -1.3730 c3        1 GM2      0.135400
     13 O6          0.5040    2.3800   -0.8920 oh        1 GM2     -0.597800
     14 CL6        -2.6880   -8.1050   -3.8310 cl        1 GM2     -0.213500
     15 CL5        -4.3230   -8.5100   -0.2820 cl        1 GM2     -0.213500
     16 CL7        -4.3660  -10.7060   -2.7090 cl        1 GM2     -0.213500
     17 CL4        -0.5450   -5.6070   -4.4980 cl        1 GM2     -0.213500
     18 CL3        -1.8310   -6.4050   -1.0360 cl        1 GM2     -0.213500
     19 CL2        -2.5500   -3.3380   -6.0020 cl        1 GM2     -0.213500
     20 CL1        -4.7950   -4.2070   -1.0880 cl        1 GM2      0.064600
     21 CB2        -3.8490   -0.9240   -2.7870 c3        1 GM2      0.126500
     22 O          -4.5030   -5.3850    0.1460 oh        1 GM2     -0.491600
     23 N          -4.2380   -2.2260   -3.2910 n3        1 GM2     -0.903800
     24 CR1        -2.9590   -0.0840   -3.7430 c3        1 GM2      0.106100
     25 OR         -1.8040   -0.8160   -4.1320 oh        1 GM2     -0.644800
     26 CR2        -3.7070    0.2800   -5.0210 c3        1 GM2     -0.083400
     27 CR3        -2.9710    1.3500   -5.7980 c3        1 GM2     -0.080400
     28 CR4        -3.6810    1.6720   -7.0960 c3        1 GM2     -0.079400
     29 CR5        -2.9500    2.7500   -7.8670 c3        1 GM2     -0.078400
     30 CR6        -3.6560    3.0680   -9.1680 c3        1 GM2     -0.079400
     31 CR7        -2.9260    4.1460   -9.9390 c3        1 GM2     -0.079400
     32 CR8        -3.6320    4.4640  -11.2400 c3        1 GM2     -0.079400
     33 CR9        -2.9020    5.5420  -12.0130 c3        1 GM2     -0.079400
     34 CRA        -3.6070    5.8580  -13.3140 c3        1 GM2     -0.079400
     35 CRB        -2.8770    6.9350  -14.0870 c3        1 GM2     -0.079400
     36 CRC        -3.5820    7.2500  -15.3890 c3        1 GM2     -0.079400
     37 CRD        -2.8510    8.3280  -16.1620 c3        1 GM2     -0.079400
     38 CRE        -3.5560    8.6430  -17.4640 c3        1 GM2     -0.079400
     39 CRF        -2.8260    9.7200  -18.2370 c3        1 GM2     -0.079400
     40 CRG        -3.5300   10.0360  -19.5400 c3        1 GM2     -0.080400
     41 CRH        -2.8070   11.1080  -20.3130 c3        1 GM2     -0.093100
     42 CL8        -2.2320  -10.3210   -6.3350 cl        1 GM2     -0.213500
     43 CL9        -7.2040  -11.8930   -1.6300 cl        1 GM2     -0.213500
     44 CLA        -2.1570  -13.1490   -4.5580 cl        1 GM2     -0.213500
     45 CLB       -10.0790  -15.1170   -2.5870 cl        1 GM2     -0.213500
     46 CLC        -5.3950  -13.5460   -4.0460 cl        1 GM2     -0.213500
     47 CLD        -6.8140  -15.0470   -1.5250 cl        1 GM2     -0.111000
     48 CLE        -4.5290  -16.2110   -5.7930 cl        1 GM2     -0.213500
     49 CLF        -7.4760  -16.1850   -4.4130 cl        1 GM2     -0.213500
     50 CLG        -4.5060  -18.9640   -7.6990 cl        1 GM2     -0.213500
     51 CLH        -5.6290  -19.1730   -4.4930 cl        1 GM2     -0.213500
     52 CLI        -1.2290  -19.3410   -8.4380 cl        1 GM2     -0.213500
     53 H1         -1.3690   -1.2830    0.3980 h2        1 GM2      0.068700
     54 H2          0.2000   -3.1240   -1.6090 h1        1 GM2      0.078700
     55 HB11       -3.8450   -1.4940   -0.6570 h1        1 GM2      0.057700
     56 HB12       -2.8680    0.0090   -1.0720 h1        1 GM2      0.057700
     57 HA          0.0320   -4.4470    0.3370 ho        1 GM2      0.430000
     58 H3          1.0930   -2.0550    1.1940 h1        1 GM2      0.068700
     59 HB          2.9240   -3.1970    0.6100 ho        1 GM2      0.417000
     60 H4          2.1280   -1.3200   -1.6610 h1        1 GM2      0.065700
     61 HC          3.7350   -1.1080   -0.1760 ho        1 GM2      0.412000
     62 H5          0.5310    0.3400    0.4640 h1        1 GM2      0.081700
     63 H6C1        1.0780    1.1390   -2.4720 h1        1 GM2      0.048200
     64 H6C2        2.3520    1.4360   -1.1750 h1        1 GM2      0.048200
     65 H6          0.8490    3.1640   -1.3350 ho        1 GM2      0.410000
     66 HL61       -1.8150   -7.1210   -3.9830 ha        1 GM2      0.239875
     67 HL62       -0.1160   -8.5000   -5.1810 ha        1 GM2      0.001437
     68 HL51       -3.5490   -7.4700   -0.5610 ha        1 GM2      0.239875
     69 HL52        0.4990   -7.4590   -2.4340 ha        1 GM2      0.001437
     70 HL71       -4.2070   -9.6910   -1.8450 ha        1 GM2      0.239875
     71 HL72        0.2480   -7.8300   -2.9420 ha        1 GM2      0.001437
     72 HL41       -1.3060   -4.7140   -5.0940 ha        1 GM2      0.239875
     73 HL42       -0.2940   -0.6850   -5.9440 ha        1 GM2      0.001437
     74 HL31       -2.1630   -5.2390   -0.5590 ha        1 GM2      0.239875
     75 HL32       -5.2290   -5.2190    0.7530 ho        1 GM2      0.427000
     76 HL21       -0.0080   -1.2560   -5.7150 ha        1 GM2      0.001437
     77 HL22       -2.0060   -2.2170   -5.6100 ha        1 GM2      0.239875
     78 HB2        -4.8010   -0.3350   -2.6210 h1        1 GM2      0.074700
     79 H          -3.4260   -2.8090   -3.3810 hn        1 GM2      0.356800
     80 HR1        -2.6420    0.8530   -3.2050 h1        1 GM2      0.056700
     81 HR         -1.2640   -0.9420   -3.3370 ho        1 GM2      0.439000
     82 HR21       -3.8210   -0.6330   -5.6640 hc        1 GM2      0.048200
     83 HR22       -4.7330    0.6400   -4.7500 hc        1 GM2      0.048200
     84 HR31       -2.8860    2.2790   -5.1750 hc        1 GM2      0.047700
     85 HR32       -1.9270    0.9950   -6.0110 hc        1 GM2      0.047700
     86 HR41       -4.7290    2.0100   -6.8780 hc        1 GM2      0.040700
     87 HR42       -3.7570    0.7460   -7.7240 hc        1 GM2      0.040700
     88 HR51       -2.8790    3.6780   -7.2410 hc        1 GM2      0.040700
     89 HR52       -1.9010    2.4140   -8.0810 hc        1 GM2      0.040700
     90 HR61       -4.7050    3.4040   -8.9540 hc        1 GM2      0.040200
     91 HR62       -3.7280    2.1400   -9.7940 hc        1 GM2      0.040200
     92 HR71       -1.8770    3.8120  -10.1520 hc        1 GM2      0.040200
     93 HR72       -2.8560    5.0750   -9.3130 hc        1 GM2      0.040200
     94 HR81       -4.6810    4.7990  -11.0270 hc        1 GM2      0.040200
     95 HR82       -3.7030    3.5350  -11.8660 hc        1 GM2      0.040200
     96 HR91       -2.8320    6.4710  -11.3870 hc        1 GM2      0.040200
     97 HR92       -1.8520    5.2070  -12.2250 hc        1 GM2      0.040200
     98 HC'        -3.6770    4.9290  -13.9390 hc        1 GM2      0.039700
     99 HR11       -4.6560    6.1930  -13.1020 hc        1 GM2      0.039700
    100 H0         -1.8270    6.6000  -14.2990 hc        1 GM2      0.039700
    101 H7         -2.8070    7.8640  -13.4630 hc        1 GM2      0.039700
    102 H8         -4.6310    7.5860  -15.1770 hc        1 GM2      0.039700
    103 H9         -3.6520    6.3210  -16.0140 hc        1 GM2      0.039700
    104 H10        -2.7820    9.2570  -15.5380 hc        1 GM2      0.039700
    105 H11        -1.8020    7.9930  -16.3740 hc        1 GM2      0.039700
    106 H12        -4.6060    8.9780  -17.2520 hc        1 GM2      0.039200
    107 H13        -3.6260    7.7130  -18.0890 hc        1 GM2      0.039200
    108 H14        -1.7770    9.3850  -18.4500 hc        1 GM2      0.039700
    109 H15        -2.7570   10.6500  -17.6130 hc        1 GM2      0.039700
    110 H16        -4.5800   10.3690  -19.3260 hc        1 GM2      0.038200
    111 H17        -3.6000    9.1050  -20.1620 hc        1 GM2      0.038200
    112 H18        -1.7660   10.7840  -20.5580 hc        1 GM2      0.033033
    113 H19        -3.3420   11.3260  -21.2690 hc        1 GM2      0.033033
    114 H20        -2.7490   12.0520  -19.7190 hc        1 GM2      0.033033
    115 HL81        0.5510   -8.3980   -5.2390 ha        1 GM2      0.001437
    116 HL82       -2.3040   -9.3870   -5.4110 ha        1 GM2      0.239875
    117 HL91       -6.0240  -11.4350   -2.1380 ha        1 GM2      0.239875
    118 HL92       -8.2290  -13.4690   -3.8050 ha        1 GM2      0.001437
    119 HL11       -2.5110  -15.5030   -2.9830 ha        1 GM2      0.001437
    120 HL12       -2.1360  -12.0100   -5.2340 ha        1 GM2      0.239875
    121 H21       -10.9360  -15.8390   -1.9520 ha        1 GM2      0.239875
    122 H22        -8.7020  -13.2120   -4.2190 ha        1 GM2      0.001437
    123 H23        -3.1410  -15.4590   -3.2310 ha        1 GM2      0.001437
    124 H24        -4.0820  -13.4000   -4.2580 ha        1 GM2      0.239875
    125 H25        -7.0930  -15.5040   -2.9530 DU        1 GM2      0.328500
    126 H26        -6.9500  -13.6020   -1.7110 DU        1 GM2      0.328500
    127 H27        -6.8950  -17.7550   -6.8230 ha        1 GM2      0.001437
    128 H28        -6.2160  -16.2490   -4.9710 ha        1 GM2      0.239875
    129 H29        -5.0980  -16.9380   -2.8810 ha        1 GM2      0.001437
    130 H30        -5.8980  -20.1840   -5.2440 ha        1 GM2      0.239875
    131 H31        -4.5340  -17.3530   -6.4750 ha        1 GM2      0.239875
    132 H32        -7.2220  -17.9380   -7.3880 ha        1 GM2      0.001437
    133 H33        -4.5720  -17.2800   -2.6230 ha        1 GM2      0.001437
    134 H34        -0.7120  -21.0800  -11.3700 ha        1 GM2      0.001437
    135 H35        -1.3880  -21.0420  -11.3860 ha        1 GM2      0.001437
    136 H36        -3.2370  -19.1330   -8.0090 ha        1 GM2      0.239875
    137 H37        -1.1810  -19.9950   -9.5540 ha        1 GM2      0.239875
    138 HN3        -4.6650   -2.1280   -4.1920 hn        1 GM2      0.356800
@<TRIPOS>BOND
     1    1    2 1
     2    1    3 1
     3    1    4 1
     4    1   53 1
     5    2    5 1
     6    3    6 1
     7    3    7 1
     8    3   54 1
     9    4   11 1
    10    5   21 1
    11    5   55 1
    12    5   56 1
    13    6   57 1
    14    7    8 1
    15    7    9 1
    16    7   58 1
    17    8   59 1
    18    9   10 1
    19    9   11 1
    20    9   60 1
    21   10   61 1
    22   11   12 1
    23   11   62 1
    24   12   13 1
    25   12   63 1
    26   12   64 1
    27   13   65 1
    28   14   66 1
    29   15   68 1
    30   16   70 1
    31   17   72 1
    32   18   74 1
    33   19   77 1
    34   20   22 1
    35   21   23 1
    36   21   24 1
    37   21   78 1
    38   22   75 1
    39   23   79 1
    40   23  138 1
    41   24   25 1
    42   24   26 1
    43   24   80 1
    44   25   81 1
    45   26   27 1
    46   26   82 1
    47   26   83 1
    48   27   28 1
    49   27   84 1
    50   27   85 1
    51   28   29 1
    52   28   86 1
    53   28   87 1
    54   29   30 1
    55   29   88 1
    56   29   89 1
    57   30   31 1
    58   30   90 1
    59   30   91 1
    60   31   32 1
    61   31   92 1
    62   31   93 1
    63   32   33 1
    64   32   94 1
    65   32   95 1
    66   33   34 1
    67   33   96 1
    68   33   97 1
    69   34   35 1
    70   34   98 1
    71   34   99 1
    72   35   36 1
    73   35  100 1
    74   35  101 1
    75   36   37 1
    76   36  102 1
    77   36  103 1
    78   37   38 1
    79   37  104 1
    80   37  105 1
    81   38   39 1
    82   38  106 1
    83   38  107 1
    84   39   40 1
    85   39  108 1
    86   39  109 1
    87   40   41 1
    88   40  110 1
    89   40  111 1
    90   41  112 1
    91   41  113 1
    92   41  114 1
    93   42  116 1
    94   43  117 1
    95   44  120 1
    96   45  121 1
    97   46  124 1
    98   48  131 1
    99   49  128 1
   100   50  136 1
   101   51  130 1
   102   52  137 1
   103   67  115 1
   104   69   71 1
   105   73   76 1
   106  118  122 1
   107  119  123 1
   108  127  132 1
   109  129  133 1
   110  134  135 1
@<TRIPOS>SUBSTRUCTURE
     1 GM2         1 TEMP              0 ****  ****    0 ROOT
