@<TRIPOS>MOLECULE
GM4
   48    50     1     0     0
SMALL
bcc


@<TRIPOS>ATOM
      1 C02          0.0000     0.0000     0.0000 c3         1 GM4      -0.031700
      2 C04         -0.1330    -0.9900     2.2850 c3         1 GM4      -0.012100
      3 C05          1.2700    -0.4760     2.4670 ca         1 GM4      -0.091300
      4 C06          2.0320     0.0000     1.4250 ca         1 GM4      -0.046300
      5 C11          1.7990    -0.4900     3.7530 ca         1 GM4      -0.088000
      6 C12          1.5320     0.0000     0.0000 c3         1 GM4      -0.007700
      7 C13          2.0700     1.2160    -0.7580 c3         1 GM4       0.004900
      8 C14          2.0040    -1.3120    -0.6520 c3         1 GM4      -0.014400
      9 C15          1.5180    -2.4700     0.2270 c3         1 GM4       0.126800
     10 C01         -0.5160     1.2960     0.6290 c3         1 GM4      -0.012100
     11 C03         -0.4770    -1.1980     0.8200 c3         1 GM4       0.135500
     12 C07          3.3110     0.4810     1.6630 ca         1 GM4      -0.143000
     13 C08          3.8360     0.4710     2.9440 ca         1 GM4       0.120100
     14 C10          3.0730    -0.0220     3.9940 ca         1 GM4      -0.141000
     15 C18         -0.1450    -4.8720     0.3180 c2         1 GM4      -0.173200
     16 C19         -1.1150    -5.6950     0.0040 c2         1 GM4      -0.136400
     17 C20         -2.5130    -5.4420     0.5070 c3         1 GM4       0.058100
     18 C21         -0.8310    -6.8980    -0.8590 c3         1 GM4       0.058100
     19 N16          0.0530    -2.4500     0.2970 n3         1 GM4      -0.520600
     20 O09          5.0910     0.9400     3.1730 oh         1 GM4      -0.500100
     21 H1          -0.3650    -0.0840    -1.0160 hc         1 GM4       0.042700
     22 H2          -0.2130    -1.9440     2.7920 hc         1 GM4       0.034700
     23 H3          -0.8190    -0.2590     2.6960 hc         1 GM4       0.034700
     24 H4           1.2050    -0.8750     4.5730 ha         1 GM4       0.105000
     25 H5           2.0310     2.0880    -0.1160 hc         1 GM4       0.010367
     26 H6           1.4640     1.3890    -1.6390 hc         1 GM4       0.010367
     27 H7           3.0950     1.0320    -1.0550 hc         1 GM4       0.010367
     28 H8           1.5780    -1.4010    -1.6440 hc         1 GM4       0.023700
     29 H9           3.0860    -1.3240    -0.7090 hc         1 GM4       0.023700
     30 H10          1.9280    -2.3600     1.2240 h1         1 GM4       0.021700
     31 H11          1.8460    -3.4090    -0.2020 h1         1 GM4       0.021700
     32 H12         -1.5270     1.1450     0.9890 hc         1 GM4       0.010700
     33 H13         -0.5120     2.0840    -0.1140 hc         1 GM4       0.010700
     34 H14          0.1240     1.5760     1.4560 hc         1 GM4       0.010700
     35 H15         -1.5570    -1.2410     0.7400 h1         1 GM4       0.031700
     36 H16          3.9040     0.8650     0.8420 ha         1 GM4       0.125000
     37 H17          3.4750    -0.0340     5.0000 ha         1 GM4       0.113000
     38 H18          0.0260    -3.6230     2.0340 h1         1 GM4       0.018700
     39 H19         -1.5240    -3.5030     1.1900 h1         1 GM4       0.018700
     40 H20          0.8820    -5.1360     0.0960 ha         1 GM4       0.111000
     41 H21         -2.4900    -5.2970     1.5800 hc         1 GM4       0.007200
     42 H22         -3.1410    -6.2930     0.2710 hc         1 GM4       0.007200
     43 H23         -2.9130    -4.5550     0.0310 hc         1 GM4       0.007200
     44 H24          0.0560    -6.7140    -1.4540 hc         1 GM4       0.007200
     45 H25         -1.6740    -7.0790    -1.5150 hc         1 GM4       0.007200
     46 H26         -0.6700    -7.7640    -0.2290 hc         1 GM4       0.007200
     47 H28          5.7050     0.2250     3.1410 ho         1 GM4       0.401000
     48 C17         -0.4520    -3.5980     1.0620 c3         1 GM4       0.180000
@<TRIPOS>BOND
     1     1     6 1   
     2     1    10 1   
     3     1    11 1   
     4     1    21 1   
     5     2     3 1   
     6     2    11 1   
     7     2    22 1   
     8     2    23 1   
     9     3     4 ar  
    10     3     5 ar  
    11     4     6 1   
    12     4    12 ar  
    13     5    14 ar  
    14     5    24 1   
    15     6     7 1   
    16     6     8 1   
    17     7    25 1   
    18     7    26 1   
    19     7    27 1   
    20     8     9 1   
    21     8    28 1   
    22     8    29 1   
    23     9    19 1   
    24     9    30 1   
    25     9    31 1   
    26    10    32 1   
    27    10    33 1   
    28    10    34 1   
    29    11    19 1   
    30    11    35 1   
    31    12    13 ar  
    32    12    36 1   
    33    13    14 ar  
    34    13    20 1   
    35    14    37 1   
    36    15    16 2   
    37    15    40 1   
    38    15    48 1   
    39    16    17 1   
    40    16    18 1   
    41    17    41 1   
    42    17    42 1   
    43    17    43 1   
    44    18    44 1   
    45    18    45 1   
    46    18    46 1   
    47    19    48 1   
    48    20    47 1   
    49    38    48 1   
    50    39    48 1   
@<TRIPOS>SUBSTRUCTURE
     1 GM4         1 TEMP              0 ****  ****    0 ROOT
