@<TRIPOS>MOLECULE
molecule
   48    50     1     0     0
SMALL
bcc


@<TRIPOS>ATOM
      1 C02          0.0000     0.0000     0.0000 c3         1 GM4      -0.049700
      2 C04         -0.1330    -0.9900     2.2850 c3         1 GM4      -0.069100
      3 C05          1.2700    -0.4760     2.4670 ca         1 GM4      -0.082300
      4 C06          2.0320     0.0000     1.4250 ca         1 GM4      -0.045300
      5 C11          1.7990    -0.4900     3.7530 ca         1 GM4      -0.119000
      6 C12          1.5320     0.0000     0.0000 c3         1 GM4      -0.018700
      7 C13          2.0700     1.2160    -0.7580 c3         1 GM4      -0.079100
      8 C14          2.0040    -1.3120    -0.6520 c3         1 GM4      -0.065400
      9 C15          1.5180    -2.4700     0.2270 c3         1 GM4       0.161800
     10 C01         -0.5160     1.2960     0.6290 c3         1 GM4      -0.092100
     11 C03         -0.4770    -1.1980     0.8200 c3         1 GM4       0.173500
     12 C07          3.3110     0.4810     1.6630 ca         1 GM4      -0.146000
     13 C08          3.8360     0.4710     2.9440 ca         1 GM4       0.102100
     14 C10          3.0730    -0.0220     3.9940 ca         1 GM4      -0.164000
     15 C18         -0.1450    -4.8720     0.3180 c2         1 GM4      -0.485200
     16 C19         -1.1150    -5.6950     0.0040 c2         1 GM4       0.061600
     17 C20         -2.5130    -5.4420     0.5070 c3         1 GM4      -0.098900
     18 C21         -0.8310    -6.8980    -0.8590 c3         1 GM4      -0.098900
     19 N16          0.0530    -2.4500     0.2970 n3         1 GM4      -0.687600
     20 O09          5.0910     0.9400     3.1730 oh         1 GM4      -0.521100
     21 H1          -0.3650    -0.0840    -1.0160 hc         1 GM4       0.067700
     22 H2          -0.8190    -0.2590     2.6960 hc         1 GM4       0.053700
     23 H3          -0.2130    -1.9440     2.7920 hc         1 GM4       0.053700
     24 H4           1.2050    -0.8750     4.5730 ha         1 GM4       0.129000
     25 H5           1.9990     2.0940    -0.1280 hc         1 GM4       0.038033
     26 H6           3.1050     1.0460    -1.0250 hc         1 GM4       0.038033
     27 H7           1.4850     1.3680    -1.6570 hc         1 GM4       0.038033
     28 H8           1.5780    -1.4010    -1.6440 hc         1 GM4       0.054200
     29 H9           3.0860    -1.3240    -0.7090 hc         1 GM4       0.054200
     30 H10          1.9280    -2.3600     1.2240 h1         1 GM4       0.055200
     31 H11          1.8460    -3.4090    -0.2020 h1         1 GM4       0.055200
     32 H12         -0.5270     2.0800    -0.1180 hc         1 GM4       0.037033
     33 H13          0.1330     1.5840     1.4460 hc         1 GM4       0.037033
     34 H14         -1.5210     1.1400     1.0030 hc         1 GM4       0.037033
     35 H15         -1.5570    -1.2410     0.7400 h1         1 GM4       0.054700
     36 H16          3.9040     0.8650     0.8420 ha         1 GM4       0.145000
     37 H17          3.4750    -0.0340     5.0000 ha         1 GM4       0.136000
     38 H18          0.0260    -3.6230     2.0340 h1         1 GM4       0.016700
     39 H19         -1.5240    -3.5030     1.1900 h1         1 GM4       0.016700
     40 H20         -0.2520    -4.8570     1.3960 ha         1 GM4       0.304000
     41 H21         -3.1420    -6.2900     0.2660 hc         1 GM4       0.054033
     42 H22         -2.4900    -5.3030     1.5810 hc         1 GM4       0.054033
     43 H23         -2.9110    -4.5520     0.0350 hc         1 GM4       0.054033
     44 H24         -1.1070    -7.7990    -0.3260 hc         1 GM4       0.054033
     45 H25          0.2260    -6.9300    -1.0980 hc         1 GM4       0.054033
     46 H26         -1.4060    -6.8290    -1.7750 hc         1 GM4       0.054033
     47 H28          5.0400     1.8010     3.5540 ho         1 GM4       0.417000
     48 C17         -0.4520    -3.5980     1.0620 c3         1 GM4       0.160000
@<TRIPOS>BOND
     1    18    16 1
     2    16    17 1
     3    16    15 2
     4    15    48 1
     5    48    19 1
     6    19     9 1
     7    19    11 1
     8     9     8 1
     9    11     2 1
    10    11     1 1
    11     2     3 1
    12     1    10 1
    13     1     6 1
    14     8     6 1
    15     6     4 1
    16     6     7 1
    17     3     4 ar
    18     3     5 ar
    19     4    12 ar
    20     5    14 ar
    21    12    13 ar
    22    14    13 ar
    23    13    20 1
    24     1    21 1
    25     2    22 1
    26     2    23 1
    27     5    24 1
    28     7    25 1
    29     7    26 1
    30     7    27 1
    31     8    28 1
    32     8    29 1
    33     9    30 1
    34     9    31 1
    35    10    32 1
    36    10    33 1
    37    10    34 1
    38    11    35 1
    39    12    36 1
    40    14    37 1
    41    48    38 1
    42    48    39 1
    43    15    40 1
    44    17    41 1
    45    17    42 1
    46    17    43 1
    47    18    44 1
    48    18    45 1
    49    18    46 1
    50    20    47 1
@<TRIPOS>SUBSTRUCTURE
     1 GM4         1 TEMP              0 ****  ****    0 ROOT
