@<TRIPOS>MOLECULE
GM5
   37    39     1     0     0
SMALL
bcc


@<TRIPOS>ATOM
      1 C6           0.0000     0.0000     0.0000 ca         1 GM5      -0.096000
      2 C5           1.3810     0.0000     0.0000 ca         1 GM5      -0.082000
      3 C4           2.0750     0.0000     1.1960 ca         1 GM5      -0.096000
      4 C2           0.0080     0.0020     2.4050 ca         1 GM5      -0.096000
      5 C10         -6.3720     0.6430     3.3890 cc         1 GM5       0.335800
      6 C12         -9.8970     3.0070     3.7830 ca         1 GM5      -0.089000
      7 C13         -9.9920     1.6130     3.7940 ca         1 GM5      -0.153600
      8 C14         -8.8400     0.8390     3.6660 ca         1 GM5      -0.005000
      9 C15         -7.6040     1.4610     3.5260 ca         1 GM5      -0.114500
     10 C16         -7.5230     2.8520     3.5160 ca         1 GM5      -0.078000
     11 C17         -8.6670     3.6160     3.6390 ca         1 GM5      -0.108000
     12 C1          -0.6930     0.0020     1.2050 ca         1 GM5       0.054900
     13 C3           1.3890     0.0010     2.3970 ca         1 GM5      -0.082000
     14 N7          -4.3120     0.0050     3.1490 na         1 GM5       0.620400
     15 N8          -5.0590    -1.0390     3.2380 nd         1 GM5      -0.362800
     16 N9          -6.2910    -0.6990     3.3810 nc         1 GM5      -0.290000
     17 C11         -5.0960     1.1020     3.2390 cd         1 GM5      -0.444600
     18 N19        -12.4230     1.7120     4.0700 ns         1 GM5      -0.063400
     19 O20        -13.6860     1.0880     4.2130 oh         1 GM5      -0.436100
     20 O21        -11.3910    -0.2520     3.9550 o          1 GM5      -0.612100
     21 S22         -2.4540     0.0020     1.2100 ss         1 GM5      -0.306000
     22 C23         -2.8560     0.0040     2.9800 c3         1 GM5       0.055400
     23 H1          -0.5420    -0.0000    -0.9380 ha         1 GM5       0.113500
     24 H2           1.9220    -0.0010    -0.9390 ha         1 GM5       0.107000
     25 H3           3.1590    -0.0000     1.1930 ha         1 GM5       0.107000
     26 H4          -0.5280     0.0030     3.3470 ha         1 GM5       0.113500
     27 H5         -10.7910     3.6110     3.8810 ha         1 GM5       0.097000
     28 H6          -8.9080    -0.2420     3.6740 ha         1 GM5       0.151000
     29 H7          -6.5600     3.3360     3.4030 ha         1 GM5       0.103000
     30 H8          -8.5980     4.6970     3.6310 ha         1 GM5       0.105000
     31 H9           1.9350     0.0010     3.3330 ha         1 GM5       0.107000
     32 H10         -4.7760     2.1370     3.2010 h4         1 GM5       0.167000
     33 H11        -12.3560     2.7110     4.0620 hn         1 GM5       0.159500
     34 H12        -14.3560     1.7470     4.2880 ho         1 GM5       0.390000
     35 H13         -2.4390    -0.8810     3.4460 h2         1 GM5       0.067200
     36 H14         -2.4380     0.8880     3.4450 h2         1 GM5       0.067200
     37 C18        -11.3100     0.9620     3.9440 c          1 GM5       0.593700
@<TRIPOS>BOND
     1     1     2 ar  
     2     1    12 ar  
     3     1    23 1   
     4     2     3 ar  
     5     2    24 1   
     6     3    13 ar  
     7     3    25 1   
     8     4    12 ar  
     9     4    13 ar  
    10     4    26 1   
    11     5     9 1   
    12     5    16 1   
    13     5    17 2   
    14     6     7 ar  
    15     6    11 ar  
    16     6    27 1   
    17     7     8 ar  
    18     7    37 1   
    19     8     9 ar  
    20     8    28 1   
    21     9    10 ar  
    22    10    11 ar  
    23    10    29 1   
    24    11    30 1   
    25    12    21 1   
    26    13    31 1   
    27    14    15 1   
    28    14    17 1   
    29    14    22 1   
    30    15    16 2   
    31    17    32 1   
    32    18    19 1   
    33    18    33 1   
    34    18    37 1   
    35    19    34 1   
    36    20    37 2   
    37    21    22 1   
    38    22    35 1   
    39    22    36 1   
@<TRIPOS>SUBSTRUCTURE
     1 GM5         1 TEMP              0 ****  ****    0 ROOT
