@<TRIPOS>MOLECULE
molecule
   37    39     1     0     0
SMALL
bcc


@<TRIPOS>ATOM
      1 C6           0.0000     0.0000     0.0000 ca         1 GM5      -0.128500
      2 C5           1.3810     0.0000     0.0000 ca         1 GM5      -0.108500
      3 C4           2.0750     0.0000     1.1960 ca         1 GM5      -0.129000
      4 C2           0.0080     0.0020     2.4050 ca         1 GM5      -0.128500
      5 C10         -6.3720     0.6430     3.3890 cc         1 GM5       0.333800
      6 C12         -9.8970     3.0070     3.7830 ca         1 GM5      -0.108000
      7 C13         -9.9920     1.6130     3.7940 ca         1 GM5      -0.139600
      8 C14         -8.8400     0.8390     3.6660 ca         1 GM5      -0.035000
      9 C15         -7.6040     1.4610     3.5260 ca         1 GM5      -0.111500
     10 C16         -7.5230     2.8520     3.5160 ca         1 GM5      -0.099000
     11 C17         -8.6670     3.6160     3.6390 ca         1 GM5      -0.135000
     12 C1          -0.6930     0.0020     1.2050 ca         1 GM5       0.031900
     13 C3           1.3890     0.0010     2.3970 ca         1 GM5      -0.108500
     14 N7          -4.3120     0.0050     3.1490 na         1 GM5       0.139400
     15 N8          -5.0590    -1.0390     3.2380 nd         1 GM5      -0.185800
     16 N9          -6.2910    -0.6990     3.3810 nc         1 GM5      -0.341000
     17 C11         -5.0960     1.1020     3.2390 cd         1 GM5      -0.273600
     18 N19        -12.4230     1.7120     4.0700 ns         1 GM5      -0.472400
     19 O20        -13.6860     1.0880     4.2130 oh         1 GM5      -0.359100
     20 O21        -11.3910    -0.2520     3.9550 o          1 GM5      -0.566100
     21 S22         -2.4540     0.0020     1.2100 ss         1 GM5      -0.226000
     22 C23         -2.8560     0.0040     2.9800 c3         1 GM5       0.129400
     23 H1          -0.5420    -0.0000    -0.9380 ha         1 GM5       0.134000
     24 H2           1.9220    -0.0010    -0.9390 ha         1 GM5       0.136500
     25 H3           3.1590    -0.0000     1.1930 ha         1 GM5       0.135000
     26 H4          -0.5280     0.0030     3.3470 ha         1 GM5       0.134000
     27 H5         -10.7910     3.6110     3.8810 ha         1 GM5       0.121000
     28 H6          -8.9080    -0.2420     3.6740 ha         1 GM5       0.183000
     29 H7          -6.5600     3.3360     3.4030 ha         1 GM5       0.130000
     30 H8          -8.5980     4.6970     3.6310 ha         1 GM5       0.135000
     31 H9           1.9350     0.0010     3.3330 ha         1 GM5       0.136500
     32 H10         -4.7760     2.1370     3.2010 h4         1 GM5       0.186000
     33 H11        -12.3560     2.7110     4.0620 hn         1 GM5       0.319500
     34 H12        -14.3560     1.7470     4.2880 ho         1 GM5       0.398000
     35 H13         -2.4390    -0.8810     3.4460 h2         1 GM5       0.092700
     36 H14         -2.4380     0.8880     3.4450 h2         1 GM5       0.092700
     37 C18        -11.3100     0.9620     3.9440 c          1 GM5       0.686700
@<TRIPOS>BOND
     1    11     6 ar
     2    11    10 ar
     3     6     7 ar
     4    10     9 ar
     5    18    19 1
     6    18    37 1
     7     7    37 1
     8     7     8 ar
     9    37    20 2
    10     9     8 ar
    11     9     5 1
    12     5    16 1
    13     5    17 2
    14    16    15 2
    15    17    14 1
    16    15    14 1
    17    14    22 1
    18    22    21 1
    19    21    12 1
    20     1    12 ar
    21     1     2 ar
    22    12     4 ar
    23     2     3 ar
    24     4    13 ar
    25     3    13 ar
    26     1    23 1
    27     2    24 1
    28     3    25 1
    29     4    26 1
    30     6    27 1
    31     8    28 1
    32    10    29 1
    33    11    30 1
    34    13    31 1
    35    17    32 1
    36    18    33 1
    37    19    34 1
    38    22    35 1
    39    22    36 1
@<TRIPOS>SUBSTRUCTURE
     1 GM5         1 TEMP              0 ****  ****    0 ROOT
