@<TRIPOS>MOLECULE
molecule
   56    57     1     0     0
SMALL
bcc


@<TRIPOS>ATOM
      1 OAG          0.0000     0.0000     0.0000 oh         1 GM6      -0.365100
      2 NAF          1.4160     0.0000     0.0000 ns         1 GM6      -0.474400
      3 CAD          2.0900     0.0000     1.1670 c          1 GM6       0.668100
      4 OAE          1.4830     0.0010     2.2170 o          1 GM6      -0.581100
      5 CAC          3.5970    -0.0000     1.1670 c3         1 GM6      -0.128400
      6 CAB          4.1060    -0.3640     2.5630 c3         1 GM6      -0.136700
      7 CAK          5.5300     0.1040     2.7160 c          1 GM6       0.671100
      8 OAL          6.1940     0.3580     1.7330 o          1 GM6      -0.630100
      9 NAM          6.0680     0.2410     3.9440 ns         1 GM6      -0.550900
     10 CAN          7.4160     0.7920     4.0980 c3         1 GM6       0.048700
     11 CAY          8.4190    -0.3340     4.1260 c          1 GM6       0.643100
     12 OAZ          8.0960    -1.4220     4.5550 o          1 GM6      -0.605100
     13 NBB          9.6720    -0.1310     3.6760 ns         1 GM6      -0.584900
     14 CBA         10.6460    -1.2250     3.7040 c3         1 GM6       0.103300
     15 CAO          7.4990     1.5820     5.4050 c3         1 GM6      -0.007200
     16 CAP          6.5860     2.7780     5.3270 cc         1 GM6      -0.162400
     17 CAT          6.9310     4.0240     4.9670 cd         1 GM6      -0.092100
     18 NAU          5.8370     4.8440     5.0150 na         1 GM6      -0.180400
     19 CAR          4.7320     4.1280     5.4170 ca         1 GM6      -0.038200
     20 CAV          3.3980     4.4610     5.6260 ca         1 GM6      -0.141000
     21 CAX          2.5070     3.4950     6.0390 ca         1 GM6      -0.104000
     22 CAW          2.9280     2.1890     6.2490 ca         1 GM6      -0.147000
     23 CAS          4.2330     1.8390     6.0490 ca         1 GM6      -0.088000
     24 CAQ          5.1510     2.8010     5.6250 ca         1 GM6      -0.093800
     25 CAA          4.0460    -1.8820     2.7490 c3         1 GM6      -0.071400
     26 CAH          2.5850    -2.3350     2.7780 c3         1 GM6      -0.078700
     27 CAJ          2.5250    -3.8620     2.8270 c3         1 GM6      -0.085100
     28 CAI          1.8960    -1.7570     4.0160 c3         1 GM6      -0.085100
     29 HAG         -0.3140     0.1740    -0.8720 ho         1 GM6       0.397000
     30 HAF          1.9160     0.0170    -0.8670 hn         1 GM6       0.320500
     31 HAC1         3.9580     0.9850     0.8960 hc         1 GM6       0.076200
     32 HAC2         3.9580    -0.7270     0.4500 hc         1 GM6       0.076200
     33 HAB          3.4860     0.1170     3.3100 hc         1 GM6       0.099700
     34 HAM          5.5630    -0.0750     4.7480 hn         1 GM6       0.329500
     35 HAN          7.6350     1.4490     3.2650 h1         1 GM6       0.088700
     36 HBB          9.9280     0.7580     3.2940 hn         1 GM6       0.312500
     37 HBA1        11.6000    -0.8690     3.3330 h1         1 GM6       0.041700
     38 HBA2        10.7640    -1.5770     4.7220 h1         1 GM6       0.041700
     39 HBA3        10.2960    -2.0370     3.0790 h1         1 GM6       0.041700
     40 HAO1         8.5180     1.9150     5.5620 hc         1 GM6       0.059700
     41 HAO2         7.1940     0.9480     6.2290 hc         1 GM6       0.059700
     42 HAT          7.9280     4.3350     4.6820 h4         1 GM6       0.163000
     43 HAU          5.8390     5.8190     4.7910 hn         1 GM6       0.296700
     44 HAV          3.0600     5.4780     5.4650 ha         1 GM6       0.126000
     45 HAX          1.4690     3.7570     6.2020 ha         1 GM6       0.133000
     46 HAW          2.2150     1.4400     6.5730 ha         1 GM6       0.134000
     47 HAS          4.5530     0.8180     6.2140 ha         1 GM6       0.123000
     48 HAA1         4.5250    -2.1500     3.6830 hc         1 GM6       0.051200
     49 HAA2         4.5580    -2.3670     1.9280 hc         1 GM6       0.051200
     50 HAH          2.0800    -1.9820     1.8860 hc         1 GM6       0.058700
     51 HAJ1         1.4910    -4.1820     2.8670 hc         1 GM6       0.035200
     52 HAJ2         2.9940    -4.2710     1.9400 hc         1 GM6       0.035200
     53 HAJ3         3.0470    -4.2160     3.7070 hc         1 GM6       0.035200
     54 HAI1         2.2990    -2.2260     4.9050 hc         1 GM6       0.035200
     55 HAI2         2.0700    -0.6880     4.0600 hc         1 GM6       0.035200
     56 HAI3         0.8310    -1.9460     3.9580 hc         1 GM6       0.035200
@<TRIPOS>BOND
     1     1     2 1
     2     1    29 1
     3     2     3 1
     4     2    30 1
     5     3     4 2
     6     3     5 1
     7     5     6 1
     8     5    31 1
     9     5    32 1
    10     6     7 1
    11     6    25 1
    12     6    33 1
    13     7     8 2
    14     7     9 1
    15     9    10 1
    16     9    34 1
    17    10    11 1
    18    10    15 1
    19    10    35 1
    20    11    12 2
    21    11    13 1
    22    13    14 1
    23    13    36 1
    24    14    37 1
    25    14    38 1
    26    14    39 1
    27    15    16 1
    28    15    40 1
    29    15    41 1
    30    16    17 2
    31    16    24 1
    32    17    18 1
    33    17    42 1
    34    18    19 1
    35    18    43 1
    36    19    20 ar
    37    19    24 ar
    38    20    21 ar
    39    20    44 1
    40    21    22 ar
    41    21    45 1
    42    22    23 ar
    43    22    46 1
    44    23    24 ar
    45    23    47 1
    46    25    26 1
    47    25    48 1
    48    25    49 1
    49    26    27 1
    50    26    28 1
    51    26    50 1
    52    27    51 1
    53    27    52 1
    54    27    53 1
    55    28    54 1
    56    28    55 1
    57    28    56 1
@<TRIPOS>SUBSTRUCTURE
     1 GM6         1 TEMP              0 ****  ****    0 ROOT
