@<TRIPOS>MOLECULE
molecule
   32    32     1     0     0
SMALL
bcc


@<TRIPOS>ATOM
      1 O            0.0000     0.0000     0.0000 o          1 GM8      -0.822800
      2 C            1.2080     0.0000     0.0000 c          1 GM8       0.887600
      3 CA           1.9620     0.0000     1.3050 c3         1 GM8      -0.190700
      4 CZ           0.9670     0.0010     2.4680 c3         1 GM8      -0.057400
      5 CQ           0.1730     1.3080     2.4590 c3         1 GM8      -0.082100
      6 CB           2.8410    -1.2490     1.3870 c3         1 GM8      -0.066700
      7 CG           3.8360    -1.2500     0.2240 c3         1 GM8       0.095500
      8 N            4.6810    -0.0500     0.3020 nz         1 GM8      -0.799600
      9 CD1          4.7150    -2.4990     0.3060 c3         1 GM8      -0.109400
     10 CE1          5.4800    -2.4980     1.6310 c3         1 GM8      -0.096400
     11 CE2          4.4860    -2.4980     2.7930 c3         1 GM8      -0.088400
     12 CD2          3.6060    -1.2490     2.7120 c3         1 GM8      -0.098400
     13 OXT          1.8790    -0.0060    -1.1620 o          1 GM8      -0.822800
     14 HG           2.5850     0.8840     1.3620 hc         1 GM8       0.014700
     15 HZ1          1.5060    -0.0870     3.4040 hc         1 GM8       0.034200
     16 HZ2          0.2870    -0.8350     2.3630 hc         1 GM8       0.034200
     17 HQ3         -0.7330     1.1760     1.8790 hc         1 GM8       0.037367
     18 HQ2         -0.0850     1.5820     3.4750 hc         1 GM8       0.037367
     19 HQ1          0.7740     2.0930     2.0150 hc         1 GM8       0.037367
     20 HB           2.2220    -2.1360     1.3300 hc         1 GM8       0.101700
     21 HA           3.2930    -1.2540    -0.7130 hx         1 GM8       0.195700
     22 H2           4.8830     0.1540     1.2600 hn         1 GM8       0.444467
     23 H3           4.1990     0.7240    -0.1100 hn         1 GM8       0.444467
     24 HD12         4.0910    -3.3830     0.2510 hc         1 GM8       0.070700
     25 HD11         5.4210    -2.4970    -0.5160 hc         1 GM8       0.070700
     26 HE12         6.1010    -3.3840     1.6880 hc         1 GM8       0.037700
     27 HE11         6.1000    -1.6120     1.6880 hc         1 GM8       0.037700
     28 HE22         3.8620    -3.3820     2.7330 hc         1 GM8       0.057200
     29 HE21         5.0290    -2.4960     3.7310 hc         1 GM8       0.057200
     30 HD21         2.9020    -1.2510     3.5350 hc         1 GM8       0.046200
     31 HD22         4.2310    -0.3650     2.7670 hc         1 GM8       0.046200
     32 HN3          5.5360    -0.2120    -0.1930 hn         1 GM8       0.444467
@<TRIPOS>BOND
     1     2     1 1
     2     2     3 1
     3     5     4 1
     4     8     7 1
     5     3     4 1
     6     3     6 1
     7     7     6 1
     8     7     9 1
     9     6    12 1
    10     9    10 1
    11    12    11 1
    12    10    11 1
    13     2    13 1
    14     3    14 1
    15     4    15 1
    16     4    16 1
    17     5    17 1
    18     5    18 1
    19     5    19 1
    20     6    20 1
    21     7    21 1
    22     8    22 1
    23     8    23 1
    24     9    24 1
    25     9    25 1
    26    10    26 1
    27    10    27 1
    28    11    28 1
    29    11    29 1
    30    12    30 1
    31    12    31 1
    32    32     8 1
@<TRIPOS>SUBSTRUCTURE
     1 GM8         1 TEMP              0 ****  ****    0 ROOT
