@<TRIPOS>MOLECULE
GMB
   34    34     1     0     0
SMALL
bcc


@<TRIPOS>ATOM
      1 C1          0.0750    0.0480   -0.5560 c3        1 GMB      0.406900
      2 O1          0.2770    0.3630   -1.8590 os        1 GMB     -0.544200
      3 P1          0.1480   -0.9690   -3.0040 p5        1 GMB      1.322900
      4 C2          1.4230   -0.1540    0.1970 c3        1 GMB      0.047100
      5 O2          2.3140    0.9320   -0.0300 oh        1 GMB     -0.659800
      6 P2         -2.5230    4.5490    4.9630 p5        1 GMB      1.318900
      7 C3          1.1880   -0.2840    1.7020 c3        1 GMB      0.135100
      8 O3          2.4290   -0.2280    2.4040 oh        1 GMB     -0.635800
      9 C4          0.2240    0.7720    2.2770 c3        1 GMB      0.095100
     10 O4         -0.2630    0.1720    3.4770 oh        1 GMB     -0.641800
     11 C5         -0.9470    1.1350    1.3390 c3        1 GMB      0.129100
     12 O5         -0.5250    1.2500   -0.0160 os        1 GMB     -0.439600
     13 C6         -1.5730    2.5130    1.6840 c3        1 GMB      0.128100
     14 O6         -2.8870    2.5010    1.1290 oh        1 GMB     -0.632800
     15 C7         -1.6640    2.8840    3.1820 c3        1 GMB      0.156400
     16 O7         -2.3730    4.0640    3.3070 os        1 GMB     -0.578200
     17 OP1        -1.3230   -1.2300   -3.1490 o         1 GMB     -0.933500
     18 OP2         0.8380   -0.4100   -4.2190 o         1 GMB     -0.933500
     19 OP3         0.9070   -2.0260   -2.2420 o         1 GMB     -0.933500
     20 OP4        -3.4000    5.7720    4.8610 o         1 GMB     -0.942833
     21 OP5        -3.1640    3.3450    5.6060 o         1 GMB     -0.942833
     22 OP6        -1.0960    4.8050    5.3770 o         1 GMB     -0.942833
     23 H1         -0.5910   -0.8450   -0.4120 h2        1 GMB      0.037700
     24 H2          1.9270   -1.0840   -0.1920 h1        1 GMB      0.095700
     25 HO2         1.9000    1.4750   -0.7190 ho        1 GMB      0.438000
     26 H3          0.7850   -1.3110    1.9310 h1        1 GMB      0.066700
     27 HO3         2.8760    0.5680    2.0890 ho        1 GMB      0.400000
     28 H4          0.8050    1.7030    2.5240 h1        1 GMB      0.043700
     29 HO4        -0.7570    0.8480    3.9570 ho        1 GMB      0.424000
     30 H5         -1.7340    0.3350    1.4220 h1        1 GMB      0.040700
     31 H6         -0.9810    3.3070    1.1480 h1        1 GMB      0.034700
     32 HO6        -3.3830    3.1760    1.6170 ho        1 GMB      0.420000
     33 H7         -0.6340    3.0130    3.6160 h1        1 GMB      0.011200
     34 H7A        -2.2120    2.0760    3.7470 h1        1 GMB      0.011200
@<TRIPOS>BOND
     1    1    2 1   
     2    1    4 1   
     3    1   12 1   
     4    1   23 1   
     5    2    3 1   
     6    3   17 1   
     7    3   18 1   
     8    3   19 1   
     9    4    5 1   
    10    4    7 1   
    11    4   24 1   
    12    5   25 1   
    13    6   16 1   
    14    6   20 1   
    15    6   21 1   
    16    6   22 1   
    17    7    8 1   
    18    7    9 1   
    19    7   26 1   
    20    8   27 1   
    21    9   10 1   
    22    9   11 1   
    23    9   28 1   
    24   10   29 1   
    25   11   12 1   
    26   11   13 1   
    27   11   30 1   
    28   13   14 1   
    29   13   15 1   
    30   13   31 1   
    31   14   32 1   
    32   15   16 1   
    33   15   33 1   
    34   15   34 1   
@<TRIPOS>SUBSTRUCTURE
     1 GMB         1 TEMP              0 ****  ****    0 ROOT
