@<TRIPOS>MOLECULE
molecule
   34    34     1     0     0
SMALL
bcc


@<TRIPOS>ATOM
      1 C1           0.0000     0.0000     0.0000 c3         1 GMB       0.411900
      2 O1          -0.4770     0.0570    -1.3460 os         1 GMB      -0.539200
      3 P1          -1.8720    -0.5990    -1.8100 p5         1 GMB       1.150900
      4 C2           1.5310     0.0000     0.0000 c3         1 GMB       0.099100
      5 O2           2.0090     1.1680    -0.6720 oh         1 GMB      -0.570800
      6 P2          -4.3180     3.8390     3.3300 p5         1 GMB       1.212900
      7 C3           2.0340     0.0000     1.4460 c3         1 GMB       0.096100
      8 O3           3.4610     0.0750     1.4560 oh         1 GMB      -0.629800
      9 C4           1.4520     1.2150     2.1780 c3         1 GMB       0.103100
     10 O4           1.8570     1.1860     3.5480 oh         1 GMB      -0.625800
     11 C5          -0.0750     1.1670     2.0930 c3         1 GMB       0.163100
     12 O5          -0.4750     1.1380     0.7220 os         1 GMB      -0.346600
     13 C6          -0.6620     2.4080     2.7700 c3         1 GMB       0.149100
     14 O6          -0.0950     3.5820     2.1840 oh         1 GMB      -0.602800
     15 C7          -2.1790     2.4240     2.5770 c3         1 GMB       0.197400
     16 O7          -2.7410     3.5180     3.3060 os         1 GMB      -0.616200
     17 OP1         -3.0900     0.1640    -1.0850 o          1 GMB      -0.896833
     18 OP2         -2.0260    -0.4600    -3.4060 o          1 GMB      -0.896833
     19 OP3         -1.8940    -2.0310    -1.4340 o          1 GMB      -0.896833
     20 OP4         -4.8040     4.2530     1.8510 o          1 GMB      -0.927833
     21 OP5         -5.0600     2.6370     3.7730 o          1 GMB      -0.927833
     22 OP6         -4.6040     5.0530     4.3480 o          1 GMB      -0.927833
     23 H1          -0.3590    -0.9040     0.4770 h2         1 GMB       0.032700
     24 H2           1.8910    -0.8870    -0.5060 h1         1 GMB       0.017700
     25 HO2          2.4620     0.9150    -1.4590 ho         1 GMB       0.374000
     26 H3           1.7100    -0.9080     1.9410 h1         1 GMB       0.033700
     27 HO3          3.8170    -0.7540     1.7300 ho         1 GMB       0.364000
     28 H4           1.8110     2.1230     1.7090 h1         1 GMB       0.080700
     29 HO4          2.6260     1.7190     3.6600 ho         1 GMB       0.374000
     30 H5          -0.4350     0.2740     2.5910 h1         1 GMB       0.034700
     31 H6          -0.4330     2.3860     3.8280 h1         1 GMB       0.009700
     32 HO6          0.0150     4.2420     2.8480 ho         1 GMB       0.376000
     33 H7          -2.4080     2.5370     1.5240 h1         1 GMB       0.061200
     34 H7A         -2.5990     1.4950     2.9410 h1         1 GMB       0.061200
@<TRIPOS>BOND
     1     2     1 1
     2     4     1 1
     3     1    12 1
     4     1    23 1
     5     2     3 1
     6    19     3 1
     7    17     3 1
     8     3    18 1
     9     4     7 1
    10     4     5 1
    11     4    24 1
    12     5    25 1
    13    16     6 1
    14     6    21 1
    15     6    22 1
    16     6    20 1
    17     8     7 1
    18     7     9 1
    19     7    26 1
    20     8    27 1
    21     9    11 1
    22     9    10 1
    23     9    28 1
    24    10    29 1
    25    12    11 1
    26    11    13 1
    27    11    30 1
    28    13    15 1
    29    13    14 1
    30    13    31 1
    31    14    32 1
    32    15    16 1
    33    15    33 1
    34    15    34 1
@<TRIPOS>SUBSTRUCTURE
     1 GMB         1 TEMP              0 ****  ****    0 ROOT
