@<TRIPOS>MOLECULE
GMC
   40    42     1     0     0
SMALL
bcc


@<TRIPOS>ATOM
      1 C10          0.0000     0.0000     0.0000 c3         1 GMC       0.158600
      2 N6           1.4680     0.0000     0.0000 nh         1 GMC      -0.442300
      3 C9           1.8910     0.0000     1.4070 c3         1 GMC       0.158600
      4 C6           1.8670    -1.2130    -0.5340 ca         1 GMC       0.599200
      5 C5           3.2290    -1.5240    -0.6780 ca         1 GMC      -0.186200
      6 C4           3.5720    -2.7720    -1.2220 ca         1 GMC       0.245800
      7 N3           2.6020    -3.6040    -1.5890 nb         1 GMC      -0.667000
      8 C2           1.3380    -3.2670    -1.4420 ca         1 GMC       0.685900
      9 N1           0.9680    -2.1080    -0.9300 nb         1 GMC      -0.682000
     10 N7           4.3880    -0.8840    -0.3880 nc         1 GMC      -0.437100
     11 C8           5.3950    -1.6380    -0.7200 cd         1 GMC       0.245700
     12 N9           4.9420    -2.8140    -1.2400 na         1 GMC       0.170000
     13 C1'          5.7690    -3.9210    -1.7270 c3         1 GMC       0.157800
     14 O4'          7.0480    -3.9260    -1.0560 os         1 GMC      -0.332600
     15 C4'          7.9260    -4.6840    -1.9150 c3         1 GMC       0.180100
     16 C5'          9.3880    -4.3540    -1.6080 c3         1 GMC       0.226400
     17 O5'          9.6830    -4.7120    -0.2580 oh         1 GMC      -0.559800
     18 C2'          6.1060    -3.7230    -3.2210 c3         1 GMC       0.135100
     19 O2'          5.2290    -4.4950    -4.0440 oh         1 GMC      -0.591800
     20 C3'          7.5610    -4.2350    -3.3470 c3         1 GMC      -0.155500
     21 N3'          7.6270    -5.3710    -4.2750 nz         1 GMC       0.103400
     22 H101        -0.3610    -0.1160    -1.0150 h1         1 GMC       0.019867
     23 H102        -0.3610     0.9370     0.4070 h1         1 GMC       0.019867
     24 H103        -0.3610    -0.8210     0.6080 h1         1 GMC       0.019867
     25 HC1          1.8570    -1.0110     1.7940 h1         1 GMC       0.019867
     26 HC2          2.9020     0.3820     1.4800 h1         1 GMC       0.019867
     27 HC3          1.2240     0.6300     1.9840 h1         1 GMC       0.019867
     28 H2           0.5730    -3.9680    -1.7520 h5         1 GMC       0.006100
     29 H8           6.4380    -1.3710    -0.6010 h5         1 GMC       0.041800
     30 H1'          5.2650    -4.8680    -1.5790 h2         1 GMC       0.074700
     31 H4'          7.7410    -5.7450    -1.7970 h1         1 GMC       0.038700
     32 H5'1        10.0320    -4.9110    -2.2780 h1         1 GMC      -0.003300
     33 H5'2         9.5550    -3.2930    -1.7460 h1         1 GMC      -0.003300
     34 H5'         10.5930    -4.5430    -0.0790 ho         1 GMC       0.418000
     35 H2'          6.0530    -2.6730    -3.4820 h1         1 GMC       0.061700
     36 HA           4.8340    -3.9360    -4.6930 ho         1 GMC       0.441000
     37 H3'          8.2160    -3.4350    -3.6700 hx         1 GMC       0.106700
     38 H3'1         7.3370    -5.0760    -5.1860 hn         1 GMC       0.228467
     39 H3'2         7.0230    -6.1010    -3.9530 hn         1 GMC       0.228467
     40 H3'3         8.5670    -5.7120    -4.3190 hn         1 GMC       0.228467
@<TRIPOS>BOND
     1     1     2 1   
     2     1    22 1   
     3     1    23 1   
     4     1    24 1   
     5     2     3 1   
     6     2     4 1   
     7     3    25 1   
     8     3    26 1   
     9     3    27 1   
    10     4     5 ar  
    11     4     9 ar  
    12     5     6 ar  
    13     5    10 1   
    14     6     7 ar  
    15     6    12 1   
    16     7     8 ar  
    17     8     9 ar  
    18     8    28 1   
    19    10    11 2   
    20    11    12 1   
    21    11    29 1   
    22    12    13 1   
    23    13    14 1   
    24    13    18 1   
    25    13    30 1   
    26    14    15 1   
    27    15    16 1   
    28    15    20 1   
    29    15    31 1   
    30    16    17 1   
    31    16    32 1   
    32    16    33 1   
    33    17    34 1   
    34    18    19 1   
    35    18    20 1   
    36    18    35 1   
    37    19    36 1   
    38    20    21 1   
    39    20    37 1   
    40    21    38 1   
    41    21    39 1   
    42    21    40 1   
@<TRIPOS>SUBSTRUCTURE
     1 GMC         1 TEMP              0 ****  ****    0 ROOT
