@<TRIPOS>MOLECULE
molecule
   49    51     1     0     0
SMALL
bcc


@<TRIPOS>ATOM
      1 C            0.0000     0.0000     0.0000 c3         1 GMD       0.141400
      2 OXT          1.4290     0.0000     0.0000 oh         1 GMD      -0.612800
      3 CA          -0.5090     0.0000     1.4430 c3         1 GMD      -0.080400
      4 CB          -2.0390    -0.0010     1.4440 c3         1 GMD      -0.067400
      5 CG          -2.5480    -0.0010     2.8880 c3         1 GMD       0.016700
      6 S5'         -4.3620    -0.0010     2.8880 ss         1 GMD      -0.352200
      7 C5'         -4.7690    -0.0020     4.6570 c3         1 GMD       0.019700
      8 C4'         -6.2880    -0.0010     4.8300 c3         1 GMD      -0.067700
      9 C1'         -6.8830    -1.3420     4.3490 c3         1 GMD       0.147800
     10 C3'         -6.6570     0.0890     6.3260 c3         1 GMD       0.147100
     11 O3'         -7.4780     1.2340     6.5660 oh         1 GMD      -0.583800
     12 C2'         -7.4430    -1.2070     6.6240 c3         1 GMD       0.122800
     13 N1'         -7.9840    -1.6280     5.3040 n3         1 GMD      -0.673600
     14 C10         -8.3240    -3.0570     5.3060 c3         1 GMD       0.233000
     15 C9          -9.5260    -3.2870     6.1840 cc         1 GMD      -0.259000
     16 C8          -9.5170    -3.7430     7.4510 cd         1 GMD      -0.088100
     17 N7         -10.7940    -3.8220     7.9250 na         1 GMD      -0.164400
     18 C5         -11.6770    -3.4090     6.9540 ca         1 GMD      -0.295800
     19 C4         -10.9210    -3.0520     5.8250 ca         1 GMD       0.472100
     20 N3         -11.5510    -2.6120     4.7330 nb         1 GMD      -0.692000
     21 C2         -12.8620    -2.5150     4.7140 ca         1 GMD       0.659900
     22 N1         -13.6100    -2.8390     5.7540 nb         1 GMD      -0.747000
     23 C6         -13.0690    -3.2830     6.8840 ca         1 GMD       0.705200
     24 N6         -13.8650    -3.6210     7.9660 nv         1 GMD      -1.084500
     25 H1          -0.3610     0.8850    -0.5110 h1         1 GMD       0.021200
     26 H2          -0.3610    -0.8850    -0.5110 h1         1 GMD       0.021200
     27 H3           1.7440     0.0000    -0.8890 ho         1 GMD       0.403000
     28 H4          -0.1480     0.8850     1.9540 hc         1 GMD       0.054200
     29 H5          -0.1470    -0.8840     1.9540 hc         1 GMD       0.054200
     30 H6          -2.4010     0.8830     0.9340 hc         1 GMD       0.055200
     31 H7          -2.4000    -0.8860     0.9340 hc         1 GMD       0.055200
     32 H8          -2.1870     0.8840     3.3980 h1         1 GMD       0.057200
     33 H9          -2.1870    -0.8850     3.3980 h1         1 GMD       0.057200
     34 H10         -4.3520     0.8830     5.1240 h1         1 GMD       0.055200
     35 H11         -4.3520    -0.8860     5.1240 h1         1 GMD       0.055200
     36 H12         -6.7340     0.8220     4.2850 hc         1 GMD       0.099700
     37 H13         -7.2730    -1.2420     3.3440 h1         1 GMD       0.050700
     38 H14         -6.1340    -2.1240     4.3940 h1         1 GMD       0.050700
     39 H15         -5.7590     0.1300     6.9310 h1         1 GMD       0.030700
     40 H16         -7.1760     1.6800     7.3400 ho         1 GMD       0.396000
     41 H17         -8.2520    -1.0060     7.3160 h1         1 GMD       0.046200
     42 H18         -6.7790    -1.9670     7.0190 h1         1 GMD       0.046200
     43 H20         -8.5480    -3.3770     4.2960 h1         1 GMD       0.043200
     44 H21         -7.4840    -3.6270     5.6870 h1         1 GMD       0.043200
     45 H22         -8.6280    -4.0090     8.0100 h4         1 GMD       0.168000
     46 H23        -11.0490    -4.1340     8.8410 hn         1 GMD       0.302700
     47 H24        -13.3470    -2.1570     3.8140 h5         1 GMD       0.059100
     48 H25        -14.2250    -4.5510     8.0510 hn         1 GMD       0.436800
     49 H26        -14.1110    -2.9250     8.6420 hn         1 GMD       0.436800
@<TRIPOS>BOND
     1    21    22 ar
     2    21    20 ar
     3    22    23 ar
     4    20    19 ar
     5    23    24 1
     6    23    18 ar
     7    19    18 ar
     8    19    15 1
     9    12    13 1
    10    12    10 1
    11    18    17 1
    12    14    15 1
    13    14    13 1
    14    15    16 2
    15    13     9 1
    16    10    11 1
    17    10     8 1
    18    17    16 1
    19     9     8 1
    20     8     7 1
    21     7     6 1
    22     6     5 1
    23     5     4 1
    24     4     3 1
    25     3     1 1
    26     2     1 1
    27     1    25 1
    28     1    26 1
    29     2    27 1
    30     3    28 1
    31     3    29 1
    32     4    30 1
    33     4    31 1
    34     5    32 1
    35     5    33 1
    36     7    34 1
    37     7    35 1
    38     8    36 1
    39     9    37 1
    40     9    38 1
    41    10    39 1
    42    11    40 1
    43    12    41 1
    44    12    42 1
    45    14    43 1
    46    14    44 1
    47    16    45 1
    48    17    46 1
    49    21    47 1
    50    24    48 1
    51    24    49 1
@<TRIPOS>SUBSTRUCTURE
     1 GMD         1 TEMP              0 ****  ****    0 ROOT
