@<TRIPOS>MOLECULE
GMD
   49    51     1     0     0
SMALL
bcc


@<TRIPOS>ATOM
      1 C            0.0000     0.0000     0.0000 c3         1 GMD       0.227400
      2 OXT          1.4290     0.0000     0.0000 oh         1 GMD      -0.594800
      3 CA          -0.5090     0.0000     1.4430 c3         1 GMD      -0.039400
      4 CB          -2.0390    -0.0010     1.4440 c3         1 GMD      -0.005400
      5 CG          -2.5480    -0.0010     2.8880 c3         1 GMD       0.085700
      6 S5'         -4.3620    -0.0010     2.8880 ss         1 GMD      -0.406200
      7 C5'         -4.7690    -0.0020     4.6570 c3         1 GMD       0.091700
      8 C4'         -6.2880    -0.0010     4.8300 c3         1 GMD      -0.050700
      9 C1'         -6.8830    -1.3420     4.3490 c3         1 GMD       0.148800
     10 C3'         -6.6570     0.0890     6.3260 c3         1 GMD       0.189100
     11 O3'         -7.4780     1.2340     6.5660 oh         1 GMD      -0.564800
     12 C2'         -7.4430    -1.2070     6.6240 c3         1 GMD       0.117800
     13 N1'         -7.9840    -1.6280     5.3040 n3         1 GMD      -0.516600
     14 C10         -8.3240    -3.0570     5.3060 c3         1 GMD       0.251000
     15 C9          -9.5260    -3.2870     6.1840 cc         1 GMD      -0.259000
     16 C8          -9.5170    -3.7430     7.4510 cd         1 GMD      -0.266100
     17 N7         -10.7940    -3.8220     7.9250 na         1 GMD       0.391600
     18 C5         -11.6770    -3.4090     6.9540 ca         1 GMD      -0.475800
     19 C4         -10.9210    -3.0520     5.8250 ca         1 GMD       0.419100
     20 N3         -11.5510    -2.6120     4.7330 nb         1 GMD      -0.557000
     21 C2         -12.8620    -2.5150     4.7140 ca         1 GMD       0.592900
     22 N1         -13.6100    -2.8390     5.7540 nb         1 GMD      -0.627000
     23 C6         -13.0690    -3.2830     6.8840 ca         1 GMD       0.532200
     24 N6         -13.8650    -3.6210     7.9660 nv         1 GMD      -0.657500
     25 H1          -0.3610     0.8850    -0.5110 h1         1 GMD      -0.014300
     26 H2          -0.3610    -0.8850    -0.5110 h1         1 GMD      -0.014300
     27 H3           1.7440     0.0000    -0.8890 ho         1 GMD       0.391000
     28 H4          -0.1480     0.8850     1.9540 hc         1 GMD       0.023700
     29 H5          -0.1470    -0.8840     1.9540 hc         1 GMD       0.023700
     30 H6          -2.4010     0.8830     0.9340 hc         1 GMD       0.028200
     31 H7          -2.4000    -0.8860     0.9340 hc         1 GMD       0.028200
     32 H8          -2.1870     0.8840     3.3980 h1         1 GMD       0.033200
     33 H9          -2.1870    -0.8850     3.3980 h1         1 GMD       0.033200
     34 H10         -4.3520     0.8830     5.1240 h1         1 GMD       0.032700
     35 H11         -4.3520    -0.8860     5.1240 h1         1 GMD       0.032700
     36 H12         -6.7340     0.8220     4.2850 hc         1 GMD       0.072700
     37 H13         -7.2730    -1.2420     3.3440 h1         1 GMD       0.024700
     38 H14         -6.1340    -2.1240     4.3940 h1         1 GMD       0.024700
     39 H15         -5.7590     0.1300     6.9310 h1         1 GMD      -0.001300
     40 H16         -7.1760     1.6800     7.3400 ho         1 GMD       0.382000
     41 H17         -8.2520    -1.0060     7.3160 h1         1 GMD       0.019200
     42 H18         -6.7790    -1.9670     7.0190 h1         1 GMD       0.019200
     43 H20         -8.5480    -3.3770     4.2960 h1         1 GMD       0.012700
     44 H21         -7.4840    -3.6270     5.6870 h1         1 GMD       0.012700
     45 H22         -8.6280    -4.0090     8.0100 h4         1 GMD       0.142000
     46 H23        -11.0490    -4.1340     8.8410 hn         1 GMD       0.115700
     47 H24        -13.3470    -2.1570     3.8140 h5         1 GMD      -0.001900
     48 H25        -14.2250    -4.5510     8.0510 hn         1 GMD       0.276300
     49 H26        -14.1110    -2.9250     8.6420 hn         1 GMD       0.276300
@<TRIPOS>BOND
     1     1     2 1   
     2     1     3 1   
     3     1    25 1   
     4     1    26 1   
     5     2    27 1   
     6     3     4 1   
     7     3    28 1   
     8     3    29 1   
     9     4     5 1   
    10     4    30 1   
    11     4    31 1   
    12     5     6 1   
    13     5    32 1   
    14     5    33 1   
    15     6     7 1   
    16     7     8 1   
    17     7    34 1   
    18     7    35 1   
    19     8     9 1   
    20     8    10 1   
    21     8    36 1   
    22     9    13 1   
    23     9    37 1   
    24     9    38 1   
    25    10    11 1   
    26    10    12 1   
    27    10    39 1   
    28    11    40 1   
    29    12    13 1   
    30    12    41 1   
    31    12    42 1   
    32    13    14 1   
    33    14    15 1   
    34    14    43 1   
    35    14    44 1   
    36    15    16 2   
    37    15    19 1   
    38    16    17 1   
    39    16    45 1   
    40    17    18 1   
    41    17    46 1   
    42    18    19 ar  
    43    18    23 ar  
    44    19    20 ar  
    45    20    21 ar  
    46    21    22 ar  
    47    21    47 1   
    48    22    23 ar  
    49    23    24 1   
    50    24    48 1   
    51    24    49 1   
@<TRIPOS>SUBSTRUCTURE
     1 GMD         1 TEMP              0 ****  ****    0 ROOT
