@<TRIPOS>MOLECULE
molecule
   46    48     1     0     0
SMALL
bcc


@<TRIPOS>ATOM
      1 N1           0.0000     0.0000     0.0000 n2         1 GMF      -0.739100
      2 N2           1.9910     0.0000     1.1900 nu         1 GMF      -0.653200
      3 C3           3.4530     0.1010     1.1910 c3         1 GMF       0.259100
      4 N3           1.9900     0.0010    -1.1920 nz         1 GMF      -0.843600
      5 C4           1.3030     0.0000     0.0000 c2         1 GMF       0.609100
      6 N4           4.9740    -1.4680     4.8250 nb         1 GMF      -0.700000
      7 C5           3.9930    -0.4560     2.4820 ca         1 GMF      -0.018300
      8 C6           3.3860    -0.1050     3.7680 ca         1 GMF      -0.287300
      9 C7           4.1810    -0.4140     4.8620 ca         1 GMF       0.402700
     10 C8           5.0130    -2.2490     3.7210 ca         1 GMF       0.402700
     11 C9           5.2220    -1.0270     2.4480 ca         1 GMF      -0.287300
     12 C10          3.8560     1.5470     1.0600 ca         1 GMF      -0.182300
     13 C11          4.9030     1.9000     0.2230 ca         1 GMF      -0.177000
     14 C12          5.2750     3.2300     0.1020 ca         1 GMF      -0.101000
     15 C13          4.6010     4.2070     0.8170 ca         1 GMF      -0.119000
     16 C14          3.5550     3.8540     1.6550 cp         1 GMF      -0.107000
     17 C15          3.1820     2.5240     1.7760 ca         1 GMF      -0.164000
     18 C30          0.7140     0.6980     7.9480 ca         1 GMF       0.143100
     19 C16          2.3890     1.2680     6.3250 cp         1 GMF       0.051000
     20 C17          3.3360     0.5710     7.0570 ca         1 GMF      -0.174000
     21 C18          2.9730    -0.0630     8.2350 ca         1 GMF      -0.071000
     22 C1          -0.9160     1.5520     9.4010 c3         1 GMF       0.119700
     23 C19          1.6620     0.0000     8.6800 ca         1 GMF      -0.146000
     24 C20          1.0780     1.3320     6.7700 ca         1 GMF      -0.148000
     25 H1          -0.5010     0.0000    -0.8660 hn         1 GMF       0.442400
     26 H11C        -1.9420     1.8920     9.3180 h1         1 GMF       0.046367
     27 H12C        -0.2520     2.4080     9.4130 h1         1 GMF       0.046367
     28 H13C        -0.7960     0.9880    10.3180 h1         1 GMF       0.046367
     29 H2           1.4340     0.8280     1.1120 hn         1 GMF       0.425800
     30 H3           3.8550    -0.4630     0.3580 h1         1 GMF       0.051700
     31 H31N         2.0150    -0.9280    -1.5630 hn         1 GMF       0.466133
     32 H32N         1.5300     0.6070    -1.8420 hn         1 GMF       0.466133
     33 H7           4.1270     0.1910     5.7580 h4         1 GMF       0.066600
     34 H8           5.6660    -3.1130     3.6880 h4         1 GMF       0.066600
     35 H6           2.9290     0.8620     3.9370 ha         1 GMF       0.191500
     36 H9           6.1090    -0.4100     2.5260 ha         1 GMF       0.191500
     37 H11          5.4020     1.1430    -0.3690 ha         1 GMF       0.124000
     38 H15          2.1050     2.5900     1.8660 ha         1 GMF       0.141000
     39 H12          6.0730     3.5090    -0.5760 ha         1 GMF       0.148000
     40 H13          4.8610     5.2500     0.6860 ha         1 GMF       0.155000
     41 H17          4.3610     0.5210     6.7100 ha         1 GMF       0.195000
     42 H20          0.3440     1.9010     6.2120 ha         1 GMF       0.175000
     43 H18          3.7130    -0.6080     8.8080 ha         1 GMF       0.173000
     44 H19          1.3700    -0.5270     9.5800 ha         1 GMF       0.171000
     45 H33          2.9480     0.2390    -1.0260 hn         1 GMF       0.466133
     46 O1          -0.6280     0.6810     8.3470 os         1 GMF      -0.323900
@<TRIPOS>BOND
     1     1     5 2
     2    46    18 1
     3    46    22 1
     4     2     3 1
     5     2     5 1
     6     3     7 1
     7     3    12 1
     8     4     5 1
     9     6     9 ar
    10     6    10 ar
    11     7     8 ar
    12     7    11 ar
    13     8     9 ar
    14    10    11 ar
    15    12    13 ar
    16    12    17 ar
    17    13    14 ar
    18    14    15 ar
    19    15    16 ar
    20    16    17 ar
    21    16    19 1
    22    19    20 ar
    23    19    24 ar
    24    20    21 ar
    25    18    23 ar
    26    18    24 ar
    27    21    23 ar
    28     1    25 1
    29    22    26 1
    30    22    27 1
    31    22    28 1
    32     2    29 1
    33     3    30 1
    34     4    31 1
    35     4    32 1
    36     9    33 1
    37    10    34 1
    38     8    35 1
    39    11    36 1
    40    13    37 1
    41    17    38 1
    42    14    39 1
    43    15    40 1
    44    20    41 1
    45    24    42 1
    46    21    43 1
    47    23    44 1
    48    45     4 1
@<TRIPOS>SUBSTRUCTURE
     1 GMF         1 TEMP              0 ****  ****    0 ROOT
