@<TRIPOS>MOLECULE
GMF
   46    48     1     0     0
SMALL
bcc


@<TRIPOS>ATOM
      1 N1           0.0000     0.0000     0.0000 n2         1 GMF      -0.598100
      2 N2           1.9910     0.0000     1.1900 nu         1 GMF      -0.462200
      3 C3           3.4530     0.1010     1.1910 c3         1 GMF       0.240100
      4 N3           1.9900     0.0010    -1.1920 nz         1 GMF       0.168400
      5 C4           1.3030     0.0000     0.0000 c2         1 GMF       0.246100
      6 N4           4.9740    -1.4680     4.8250 nb         1 GMF      -0.586000
      7 C5           3.9930    -0.4560     2.4820 ca         1 GMF      -0.046300
      8 C6           4.5940    -1.7660     2.5320 ca         1 GMF      -0.275300
      9 C7           5.3090    -2.0430     3.6860 ca         1 GMF       0.448200
     10 C8           3.9330    -0.6070     4.8680 ca         1 GMF       0.448200
     11 C9           4.1520     0.4000     3.5210 ca         1 GMF      -0.275300
     12 C10          3.8560     1.5470     1.0600 ca         1 GMF      -0.198300
     13 C11          3.1380     2.5290     1.7230 ca         1 GMF      -0.098000
     14 C12          3.5080     3.8590     1.6030 ca         1 GMF      -0.078000
     15 C13          4.5980     4.2060     0.8200 ca         1 GMF      -0.109000
     16 C14          5.3160     3.2250     0.1580 cp         1 GMF       0.026000
     17 C15          4.9460     1.8950     0.2780 ca         1 GMF      -0.085000
     18 C30          8.4430     5.4920    -0.5340 ca         1 GMF       0.150100
     19 C16          6.5160     4.1240    -0.1140 cp         1 GMF      -0.020000
     20 C17          7.3370     3.0210     0.0610 ca         1 GMF      -0.226000
     21 C18          8.7110     3.1540    -0.0620 ca         1 GMF      -0.049000
     22 C1          10.3970     6.7370    -0.8840 c3         1 GMF       0.234700
     23 C19          9.2640     4.3880    -0.3590 ca         1 GMF      -0.182000
     24 C20          7.0700     5.3590    -0.4110 ca         1 GMF      -0.075000
     25 H1          -0.5020     0.0000     0.8660 hn         1 GMF       0.379400
     26 H11C        10.7480     6.0660    -1.6580 h1         1 GMF       0.003367
     27 H12C        10.9050     6.5130     0.0460 h1         1 GMF       0.003367
     28 H13C        10.6050     7.7610    -1.1720 h1         1 GMF       0.003367
     29 H2           1.4590     0.4530     1.9060 hn         1 GMF       0.323800
     30 H3           3.8550    -0.4630     0.3580 h1         1 GMF       0.016700
     31 H31N         1.3390     0.0410    -1.9520 hn         1 GMF       0.229800
     32 H32N         2.5940     0.7980    -1.2290 hn         1 GMF       0.229800
     33 H7           6.1120    -2.7700     3.6630 h4         1 GMF      -0.003900
     34 H8           3.6590    -0.1380     5.8050 h4         1 GMF      -0.003900
     35 H6           5.1720    -2.1470     1.6990 ha         1 GMF       0.160000
     36 H9           5.1040     0.8930     3.6760 ha         1 GMF       0.160000
     37 H11          2.2880     2.2570     2.3370 ha         1 GMF       0.108000
     38 H15          5.5010     1.0850    -0.1800 ha         1 GMF       0.112000
     39 H12          2.9460     4.6260     2.1200 ha         1 GMF       0.119000
     40 H13          4.9080     5.2420     0.7540 ha         1 GMF       0.139000
     41 H17          6.9040     2.0560     0.2930 ha         1 GMF       0.127000
     42 H20          6.4280     6.2220    -0.5480 ha         1 GMF       0.120000
     43 H18          9.3520     2.2910     0.0740 ha         1 GMF       0.104000
     44 H19         10.3360     4.4880    -0.4750 ha         1 GMF       0.131000
     45 H33          2.4970    -0.8570    -1.2860 hn         1 GMF       0.229800
     46 O1           8.9990     6.7320    -0.8610 os         1 GMF      -0.291900
@<TRIPOS>BOND
     1     1     5 2   
     2     1    25 1   
     3     2     3 1   
     4     2     5 1   
     5     2    29 1   
     6     3     7 1   
     7     3    12 1   
     8     3    30 1   
     9     4     5 1   
    10     4    31 1   
    11     4    32 1   
    12     4    45 1   
    13     6     9 ar  
    14     6    10 ar  
    15     7     8 ar  
    16     7    11 ar  
    17     8     9 ar  
    18     8    35 1   
    19     9    33 1   
    20    10    11 ar  
    21    10    34 1   
    22    11    36 1   
    23    12    13 ar  
    24    12    17 ar  
    25    13    14 ar  
    26    13    37 1   
    27    14    15 ar  
    28    14    39 1   
    29    15    16 ar  
    30    15    40 1   
    31    16    17 ar  
    32    16    19 1   
    33    17    38 1   
    34    18    23 ar  
    35    18    24 ar  
    36    18    46 1   
    37    19    20 ar  
    38    19    24 ar  
    39    20    21 ar  
    40    20    41 1   
    41    21    23 ar  
    42    21    43 1   
    43    22    26 1   
    44    22    27 1   
    45    22    28 1   
    46    22    46 1   
    47    23    44 1   
    48    24    42 1   
@<TRIPOS>SUBSTRUCTURE
     1 GMF         1 TEMP              0 ****  ****    0 ROOT
