@<TRIPOS>MOLECULE
molecule
   46    50     1     0     0
SMALL
bcc


@<TRIPOS>ATOM
      1 C4           0.0000     0.0000     0.0000 ca         1 GMG      -0.118000
      2 C5          -7.5700     0.9710     8.4060 ca         1 GMG      -0.125500
      3 C6          -6.0540    -0.8750     8.1860 ca         1 GMG      -0.125500
      4 C7          -0.6570     0.0100     3.6630 ca         1 GMG      -0.114000
      5 C8          -7.7760     0.9730     7.0420 ca         1 GMG      -0.119500
      6 C10         -2.0150     0.0160     3.6770 ca         1 GMG      -0.116000
      7 C13         -8.5240     0.0470     4.1290 cc         1 GMG      -0.102100
      8 C17          0.0340     0.0040     2.4380 ca         1 GMG      -0.042000
      9 C20         -2.7470     0.0170     2.4800 cp         1 GMG      -0.003000
     10 C21         -4.2300     0.0240     2.5240 cp         1 GMG      -0.214300
     11 C22         -6.2930     0.0350     3.7300 ca         1 GMG      -0.205100
     12 C24         -6.9730     0.0420     2.4970 ca         1 GMG       0.462800
     13 C1           2.0770     0.0000     1.1950 ca         1 GMG      -0.136000
     14 C2           1.3600     0.0000     0.0000 ca         1 GMG      -0.130000
     15 C3           1.4380    -0.0010     2.3970 ca         1 GMG      -0.111000
     16 C9          -6.2500    -0.8820     6.8190 ca         1 GMG      -0.119500
     17 C11         -2.0990     0.0110     1.2590 ca         1 GMG      -0.129000
     18 C12         -4.9000     0.0280     3.7470 ca         1 GMG      -0.025000
     19 C14         -4.9740     0.0260     1.3430 ca         1 GMG       0.450200
     20 C16         -6.7120     0.0490     8.9770 ca         1 GMG       0.004700
     21 C18         -7.1150     0.0440     6.2380 ca         1 GMG      -0.073800
     22 C19         -0.6960     0.0060     1.2220 ca         1 GMG      -0.028000
     23 C23         -7.3310     0.0430     4.7720 cd         1 GMG      -0.051400
     24 C25         -7.4990    -0.8560    11.1260 c          1 GMG       0.893600
     25 N26         -8.3200     0.0430     2.7780 na         1 GMG      -0.283100
     26 N27         -6.2890     0.0370     1.3610 nb         1 GMG      -0.723000
     27 O28         -7.4940    -1.0100    12.4590 o          1 GMG      -0.842300
     28 O29         -8.3130    -1.4440    10.4540 o          1 GMG      -0.842300
     29 H4          -0.5440     0.0000    -0.9370 ha         1 GMG       0.129000
     30 H5          -8.0830     1.6920     9.0310 ha         1 GMG       0.130500
     31 H6          -5.3820    -1.5940     8.6390 ha         1 GMG       0.130500
     32 H7          -0.1050     0.0100     4.5960 ha         1 GMG       0.134000
     33 H8          -8.4490     1.6950     6.5950 ha         1 GMG       0.113500
     34 H10         -2.5400     0.0200     4.6250 ha         1 GMG       0.142000
     35 H13         -9.4930     0.0510     4.6130 h4         1 GMG       0.180000
     36 H15         -6.6090     1.0590    10.8490 hc         1 GMG       0.040700
     37 H15A        -5.4910    -0.3020    10.6860 hc         1 GMG       0.040700
     38 H1           3.1600     0.0000     1.1670 ha         1 GMG       0.122000
     39 H2           1.8940     0.0010    -0.9430 ha         1 GMG       0.122000
     40 H3           2.0100    -0.0010     3.3170 ha         1 GMG       0.130000
     41 H9          -5.7350    -1.6060     6.2000 ha         1 GMG       0.113500
     42 H11         -2.6690     0.0120     0.3380 ha         1 GMG       0.134000
     43 H12         -4.3680     0.2860     4.6550 ha         1 GMG       0.151000
     44 H14         -4.4570     0.0190     0.3910 h4         1 GMG       0.018100
     45 HN26        -9.0470     0.0450     2.0900 hn         1 GMG       0.296700
     46 C15         -6.4910     0.0510    10.4680 c3         1 GMG      -0.157100
@<TRIPOS>BOND
     1    14     1 ar
     2    22     1 ar
     3     1    29 1
     4     2     5 ar
     5     2    20 ar
     6     2    30 1
     7    20     3 ar
     8     3    16 ar
     9     3    31 1
    10     4     8 ar
    11     4     6 ar
    12     4    32 1
    13     5    21 ar
    14     5    33 1
    15     6     9 ar
    16     6    34 1
    17    23     7 2
    18     7    25 1
    19     7    35 1
    20    24    46 1
    21    46    20 1
    22    46    36 1
    23    46    37 1
    24    15     8 ar
    25     8    22 ar
    26     9    17 ar
    27     9    10 1
    28    10    18 ar
    29    10    19 ar
    30    18    11 ar
    31    11    23 1
    32    11    12 ar
    33    12    26 ar
    34    12    25 1
    35    15    13 ar
    36    13    14 ar
    37    13    38 1
    38    14    39 1
    39    15    40 1
    40    21    16 ar
    41    16    41 1
    42    22    17 ar
    43    17    42 1
    44    18    43 1
    45    19    26 ar
    46    19    44 1
    47    21    23 1
    48    28    24 1
    49    24    27 1
    50    25    45 1
@<TRIPOS>SUBSTRUCTURE
     1 GMG         1 TEMP              0 ****  ****    0 ROOT
