@<TRIPOS>MOLECULE
GMG
   46    44     1     0     0
SMALL
bcc


@<TRIPOS>ATOM
      1 C4         -1.8030    1.2090   -1.1800 c1        1 GMG      0.133000
      2 C5        -10.4690    1.3160    6.3370 c1        1 GMG     -0.291000
      3 C6         -7.1610    0.4830    7.8600 c2        1 GMG      0.072000
      4 C7          0.3190   -1.8860    3.7880 ca        1 GMG     -0.132500
      5 C8         -9.3130    1.3820    6.0320 c1        1 GMG     -0.113000
      6 C10        -0.9290   -1.2770    3.7160 ca        1 GMG     -0.109000
      7 C13        -8.4670    0.4130    3.5130 c1        1 GMG     -0.110000
      8 C17         1.1960   -1.8450    2.6930 ca        1 GMG     -0.007000
      9 C20        -1.3280   -0.6110    2.5430 ca        1 GMG      0.063000
     10 C21        -2.5860    0.0020    2.4700 c1        1 GMG     -0.193000
     11 C22        -6.1190    0.5550    4.2170 c2        1 GMG     -0.173000
     12 C24        -5.8550    1.1920    2.9340 c2        1 GMG      0.059000
     13 C1          3.0260   -3.1480    3.7640 c1        1 GMG      0.183000
     14 C2         -2.9780    1.7660   -1.1390 c2        1 GMG     -0.544000
     15 C3          2.4980   -2.4790    2.7600 c2        1 GMG     -0.426000
     16 C9         -7.0110    1.4200    6.8470 c2        1 GMG     -0.559000
     17 C11        -0.4480   -0.5690    1.4470 ca        1 GMG     -0.109000
     18 C12        -5.1460    0.1920    5.0740 c2        1 GMG     -0.109000
     19 C14        -3.6670    0.5330    2.4030 c1        1 GMG     -0.044000
     20 C16        -6.3480    0.2790    8.8930 c1        1 GMG     -0.399000
     21 C18        -7.9120    1.5070    5.6960 c3        1 GMG      0.136000
     22 C19         0.7980   -1.1800    1.5240 ca        1 GMG     -0.132500
     23 C23        -7.5490    0.4020    4.6370 c3        1 GMG     -0.009000
     24 C25        -6.3800   -1.9900   11.5550 c1        1 GMG      0.437000
     25 N26        -9.2270    0.4060    2.6310 n1        1 GMG     -0.115000
     26 N27        -4.8120    1.1890    2.1630 n2        1 GMG     -0.148000
     27 O28        -5.8780   -2.8260   10.8720 o         1 GMG     -0.223000
     28 O29        -6.8980   -1.2430   12.3240 o         1 GMG     -0.223000
     29 H4          1.4760   -1.1400    0.6580 ha        1 GMG      0.130500
     30 H5        -11.4880    1.2540    6.6100 ha        1 GMG      0.202000
     31 H6         -8.0430   -0.1910    7.7960 ha        1 GMG      0.085000
     32 H7          0.6210   -2.4040    4.7110 ha        1 GMG      0.130500
     33 H8         -7.7710    2.5030    5.1800 hc        1 GMG      0.076000
     34 H10        -1.6110   -1.3130    4.5790 ha        1 GMG      0.152500
     35 H13        -7.6670   -0.5920    5.1640 hc        1 GMG      0.130000
     36 H15        -5.7480    0.6070   10.8910 ha        1 GMG      0.054000
     37 H15A       -4.7470   -0.6120    9.9360 ha        1 GMG      0.054000
     38 H1          3.1200   -2.3810    1.8430 ha        1 GMG      0.188000
     39 H2         -3.4510    2.3310   -1.9540 ha        1 GMG      0.205500
     40 H3         -3.6190    1.7080   -0.2360 ha        1 GMG      0.205500
     41 H9         -6.2010    2.1510    6.8880 ha        1 GMG      0.106000
     42 H11        -0.7490   -0.0480    0.5210 ha        1 GMG      0.152500
     43 H12        -5.3800   -0.2350    6.0640 ha        1 GMG      0.140000
     44 H14        -4.0810    0.3450    4.8530 ha        1 GMG      0.140000
     45 HN26       -6.6910    1.8050    2.5230 h4        1 GMG      0.156000
     46 C15        -5.6060    0.0790    9.9330 c2        1 GMG     -0.224000
@<TRIPOS>BOND
     1    1   14 1   
     2    2    5 1   
     3    2   30 1   
     4    3   16 1   
     5    3   20 1   
     6    3   31 1   
     7    4    6 1   
     8    4    8 1   
     9    4   32 1   
    10    5   21 1   
    11    6    9 1   
    12    6   34 1   
    13    7   23 1   
    14    7   25 1   
    15    8   15 1   
    16    8   22 1   
    17    9   10 1   
    18    9   17 1   
    19   10   19 1   
    20   11   12 1   
    21   11   18 1   
    22   11   23 1   
    23   12   26 1   
    24   12   45 1   
    25   13   15 1   
    26   14   39 1   
    27   14   40 1   
    28   15   38 1   
    29   16   21 1   
    30   16   41 1   
    31   17   22 1   
    32   17   42 1   
    33   18   43 1   
    34   18   44 1   
    35   19   26 1   
    36   20   46 1   
    37   21   23 1   
    38   21   33 1   
    39   22   29 1   
    40   23   35 1   
    41   24   27 1   
    42   24   28 1   
    43   36   46 1   
    44   37   46 1   
@<TRIPOS>SUBSTRUCTURE
     1 GMG         1 TEMP              0 ****  ****    0 ROOT
