@<TRIPOS>MOLECULE
GMJ
   49    51     1     0     0
SMALL
bcc


@<TRIPOS>ATOM
      1 C10          0.0000     0.0000     0.0000 c3         1 GMJ      -0.030400
      2 C11          1.5300     0.0000     0.0000 c3         1 GMJ       0.153800
      3 C01         -2.0560    -0.0100     3.9280 ca         1 GMJ      -0.024000
      4 C02         -2.7510    -0.0090     5.1180 ca         1 GMJ      -0.149500
      5 C03         -4.1380    -0.0040     5.1140 ca         1 GMJ       0.133900
      6 C04         -4.8340     0.0010     3.9150 ca         1 GMJ      -0.149500
      7 C05         -4.1520     0.0000     2.7180 ca         1 GMJ      -0.024000
      8 C06         -2.7520     0.0000     2.7150 ca         1 GMJ      -0.202600
      9 C07         -2.0170     0.0000     1.4420 c          1 GMJ       0.627700
     10 C09         -0.5100     0.0000     1.4420 c3         1 GMJ      -0.121400
     11 C13          3.4680    -0.2380    -1.4310 c3         1 GMJ       0.151300
     12 C14          3.9180    -0.3770    -2.8870 c3         1 GMJ      -0.038900
     13 C15          3.5690     0.9050    -3.6480 c3         1 GMJ       0.226100
     14 C16          2.0620     1.1560    -3.5440 c3         1 GMJ      -0.038900
     15 C17          1.6660     1.2500    -2.0690 c3         1 GMJ       0.151300
     16 C18          3.9560     0.7520    -5.0960 ca         1 GMJ      -0.133300
     17 C19          4.3280     1.8610    -5.8320 ca         1 GMJ      -0.083000
     18 C20          4.6840     1.7230    -7.1610 ca         1 GMJ      -0.099500
     19 C21          4.6670     0.4720    -7.7540 ca         1 GMJ      -0.031600
     20 C22          4.2950    -0.6380    -7.0170 ca         1 GMJ      -0.099500
     21 C23          3.9450    -0.4980    -5.6860 ca         1 GMJ      -0.083000
     22 N12          2.0200    -0.0000    -1.3850 n3         1 GMJ      -0.539600
     23 O08         -2.6230    -0.0000     0.3920 o          1 GMJ      -0.555100
     24 Cl1          5.1140     0.2970    -9.4220 cl         1 GMJ      -0.027400
     25 H1          -0.3610    -0.8840    -0.5110 hc         1 GMJ       0.036700
     26 H2          -0.3610     0.8850    -0.5110 hc         1 GMJ       0.036700
     27 H3           1.8910    -0.8840     0.5110 h1         1 GMJ       0.006200
     28 H4           1.8910     0.8850     0.5110 h1         1 GMJ       0.006200
     29 H5          -0.9730    -0.0120     3.9330 ha         1 GMJ       0.120000
     30 H6          -2.2130    -0.0150     6.0580 ha         1 GMJ       0.123000
     31 H7          -5.9180     0.0030     3.9190 ha         1 GMJ       0.123000
     32 H8          -4.6970     0.0060     1.7810 ha         1 GMJ       0.120000
     33 H9          -0.1490    -0.8850     1.9530 hc         1 GMJ       0.035200
     34 H10         -0.1490     0.8840     1.9530 hc         1 GMJ       0.035200
     35 H11          3.9850     0.5970    -0.9730 h1         1 GMJ       0.017450
     36 H12          3.7000    -1.1510    -0.8950 h1         1 GMJ       0.017450
     37 H13          4.9890    -0.5350    -2.9190 hc         1 GMJ       0.030700
     38 H14          3.4090    -1.2170    -3.3430 hc         1 GMJ       0.030700
     39 H15          1.8160     2.0850    -4.0430 hc         1 GMJ       0.030700
     40 H16          1.5270     0.3370    -4.0090 hc         1 GMJ       0.030700
     41 H17          0.5970     1.4110    -1.9930 h1         1 GMJ       0.017450
     42 H18          2.1940     2.0750    -1.6070 h1         1 GMJ       0.017450
     43 H19          4.3410     2.8400    -5.3680 ha         1 GMJ       0.121000
     44 H20          4.9760     2.5920    -7.7370 ha         1 GMJ       0.115500
     45 H21          4.2840    -1.6170    -7.4800 ha         1 GMJ       0.115500
     46 H22          3.6530    -1.3660    -5.1090 ha         1 GMJ       0.121000
     47 H24          5.2040     1.8720    -3.1790 ho         1 GMJ       0.396000
     48 O25          4.2760     2.0080    -3.0780 oh         1 GMJ      -0.587800
     49 F26         -4.8130    -0.0040     6.2840 f          1 GMJ      -0.125900
@<TRIPOS>BOND
     1     1     2 1   
     2     1    10 1   
     3     1    25 1   
     4     1    26 1   
     5     2    22 1   
     6     2    27 1   
     7     2    28 1   
     8     3     4 ar  
     9     3     8 ar  
    10     3    29 1   
    11     4     5 ar  
    12     4    30 1   
    13     5     6 ar  
    14     5    49 1   
    15     6     7 ar  
    16     6    31 1   
    17     7     8 ar  
    18     7    32 1   
    19     8     9 1   
    20     9    10 1   
    21     9    23 2   
    22    10    33 1   
    23    10    34 1   
    24    11    12 1   
    25    11    22 1   
    26    11    35 1   
    27    11    36 1   
    28    12    13 1   
    29    12    37 1   
    30    12    38 1   
    31    13    14 1   
    32    13    16 1   
    33    13    48 1   
    34    14    15 1   
    35    14    39 1   
    36    14    40 1   
    37    15    22 1   
    38    15    41 1   
    39    15    42 1   
    40    16    17 ar  
    41    16    21 ar  
    42    17    18 ar  
    43    17    43 1   
    44    18    19 ar  
    45    18    44 1   
    46    19    20 ar  
    47    19    24 1   
    48    20    21 ar  
    49    20    45 1   
    50    21    46 1   
    51    47    48 1   
@<TRIPOS>SUBSTRUCTURE
     1 GMJ         1 TEMP              0 ****  ****    0 ROOT
