@<TRIPOS>MOLECULE
molecule
   96    96     1     0     0
SMALL
bcc


@<TRIPOS>ATOM
      1 O2           0.0000     0.0000     0.0000 os         1 GMN      -0.329400
      2 C20          4.1520     0.0000     0.0000 ca         1 GMN      -0.213000
      3 C21          3.4550     0.0000     1.2030 ca         1 GMN       0.145600
      4 C22          2.0630    -0.0000     1.2150 ca         1 GMN       0.043100
      5 C23          1.3620     0.0010     0.0090 ca         1 GMN       0.145600
      6 C24          2.0560     0.0010    -1.2010 ca         1 GMN      -0.213000
      7 C19          3.4510     0.0010    -1.2060 ca         1 GMN      -0.026000
      8 O3           4.1560    -0.0020     2.3810 os         1 GMN      -0.329400
      9 C1           1.0650     1.2690     2.9600 c3         1 GMN       0.109400
     10 C2           0.3090     1.0720     4.2600 c3         1 GMN       0.128800
     11 C4           1.5420    -1.0430     4.6790 c3         1 GMN       0.121467
     12 C5           2.3870    -1.7710     5.7020 c3         1 GMN      -0.126433
     13 C6           2.4700     1.1160     5.4860 c3         1 GMN       0.121467
     14 C7           2.1310     2.4900     6.0240 c3         1 GMN      -0.126433
     15 C8           0.4490     0.1510     6.5640 c3         1 GMN       0.121467
     16 C9          -0.7980    -0.6770     6.3440 c3         1 GMN      -0.126433
     17 C10         -0.6390    -0.0010    -1.2750 c3         1 GMN       0.117400
     18 C11         -2.1440    -0.0120    -1.0890 c3         1 GMN       0.116300
     19 C13         -2.4380     1.1910    -3.2430 c3         1 GMN       0.124133
     20 C14         -3.1570     1.1360    -4.5730 c3         1 GMN      -0.125433
     21 C15         -2.3630    -1.2920    -3.2070 c3         1 GMN       0.124133
     22 C16         -2.7110    -2.5340    -2.4150 c3         1 GMN      -0.125433
     23 C17         -4.3290    -0.0940    -2.2690 c3         1 GMN       0.124133
     24 C18         -4.7960     1.1600    -1.5620 c3         1 GMN      -0.125433
     25 C25          5.4270    -0.6380     2.3690 c3         1 GMN       0.117400
     26 C26          5.7280    -1.1970     3.7450 c3         1 GMN       0.116300
     27 C28          8.1480    -0.8060     3.3400 c3         1 GMN       0.124133
     28 C29          8.1270     0.3310     4.3380 c3         1 GMN      -0.125433
     29 C30          7.4260    -2.3770     5.1240 c3         1 GMN       0.124133
     30 C31          8.7970    -3.0170     5.1080 c3         1 GMN      -0.125433
     31 C32          7.1240    -2.9880     2.7330 c3         1 GMN       0.124133
     32 C33          6.0860    -4.0140     3.1330 c3         1 GMN      -0.125433
     33 N3           1.1710     0.3420     5.2230 n4         1 GMN      -0.630800
     34 N12         -2.8020    -0.0500    -2.4190 n4         1 GMN      -0.635800
     35 N27          7.1070    -1.8420     3.7350 n4         1 GMN      -0.635800
     36 H20          5.2350    -0.0000    -0.0010 ha         1 GMN       0.152500
     37 H24          1.5120     0.0020    -2.1370 ha         1 GMN       0.152500
     38 H19          3.9900     0.0010    -2.1460 ha         1 GMN       0.172000
     39 H11          0.4480     1.8260     2.2640 h1         1 GMN       0.069700
     40 H12          1.9780     1.8200     3.1530 h1         1 GMN       0.069700
     41 H21          0.0410     2.0370     4.6730 hx         1 GMN       0.112700
     42 H22         -0.5900     0.4980     4.0720 hx         1 GMN       0.112700
     43 H41          2.1290    -0.8670     3.7860 hx         1 GMN       0.103700
     44 H42          0.6770    -1.6450     4.4310 hx         1 GMN       0.103700
     45 H51          2.8650    -2.6240     5.2350 hc         1 GMN       0.070367
     46 H52          1.7560    -2.1110     6.5150 hc         1 GMN       0.070367
     47 H53          3.1440    -1.1000     6.0890 hc         1 GMN       0.070367
     48 H61          3.1230     0.6050     6.1830 hx         1 GMN       0.103700
     49 H62          2.9680     1.2150     4.5290 hx         1 GMN       0.103700
     50 H71          2.5450     3.2470     5.3680 hc         1 GMN       0.070367
     51 H72          2.5520     2.6030     7.0150 hc         1 GMN       0.070367
     52 H73          1.0550     2.6030     6.0720 hc         1 GMN       0.070367
     53 H81          0.1770     1.1090     6.9910 hx         1 GMN       0.103700
     54 H82          1.1160    -0.3700     7.2400 hx         1 GMN       0.103700
     55 H91         -1.3150    -0.8090     7.2870 hc         1 GMN       0.070367
     56 H92         -0.5220    -1.6460     5.9460 hc         1 GMN       0.070367
     57 H93         -1.4490    -0.1700     5.6430 hc         1 GMN       0.070367
     58 H101        -0.3500     0.8880    -1.8230 h1         1 GMN       0.062700
     59 H102        -0.3370    -0.8810    -1.8290 h1         1 GMN       0.062700
     60 H111        -2.4490     0.8820    -0.5590 hx         1 GMN       0.104450
     61 H112        -2.4310    -0.8860    -0.5180 hx         1 GMN       0.104450
     62 H131        -1.3680     1.2140    -3.4100 hx         1 GMN       0.102367
     63 H132        -2.7390     2.0830    -2.7060 hx         1 GMN       0.102367
     64 H141        -2.7560     0.3220    -5.1660 hc         1 GMN       0.074978
     65 H142        -4.2150     0.9730    -4.4060 hc         1 GMN       0.074978
     66 H143        -3.0140     2.0710    -5.1000 hc         1 GMN       0.074978
     67 H151        -2.8790    -1.3140    -4.1600 hx         1 GMN       0.102367
     68 H152        -1.2940    -1.2580    -3.3760 hx         1 GMN       0.102367
     69 H161        -1.8140    -3.1180    -2.2480 hc         1 GMN       0.074978
     70 H162        -3.1380    -2.2460    -1.4620 hc         1 GMN       0.074978
     71 H163        -3.4290    -3.1260    -2.9690 hc         1 GMN       0.074978
     72 H171        -4.7000    -0.9660    -1.7430 hx         1 GMN       0.102367
     73 H172        -4.7050    -0.0980    -3.2850 hx         1 GMN       0.102367
     74 H181        -4.0930     1.9620    -1.7480 hc         1 GMN       0.074978
     75 H182        -4.8560     0.9720    -0.4970 hc         1 GMN       0.074978
     76 H183        -5.7730     1.4420    -1.9350 hc         1 GMN       0.074978
     77 H251         6.1880     0.0830     2.0970 h1         1 GMN       0.062700
     78 H252         5.4200    -1.4450     1.6460 h1         1 GMN       0.062700
     79 H261         5.7090    -0.3950     4.4730 hx         1 GMN       0.104450
     80 H262         4.9830    -1.9390     4.0050 hx         1 GMN       0.104450
     81 H281         9.1330    -1.2570     3.3250 hx         1 GMN       0.102367
     82 H282         7.9100    -0.4250     2.3540 hx         1 GMN       0.102367
     83 H291         9.0420     0.3200     4.9170 hc         1 GMN       0.074978
     84 H292         8.0450     1.2730     3.8110 hc         1 GMN       0.074978
     85 H293         7.2790     0.2130     5.0020 hc         1 GMN       0.074978
     86 H301         6.6820    -3.1220     5.3810 hx         1 GMN       0.102367
     87 H302         7.4080    -1.5800     5.8580 hx         1 GMN       0.102367
     88 H311         9.4790    -2.4240     5.7050 hc         1 GMN       0.074978
     89 H312         8.7330    -4.0170     5.5180 hc         1 GMN       0.074978
     90 H313         9.1600    -3.0670     4.0880 hc         1 GMN       0.074978
     91 H321         8.0990    -3.4570     2.6900 hx         1 GMN       0.102367
     92 H322         6.8750    -2.5810     1.7610 hx         1 GMN       0.102367
     93 H331         6.5490    -4.9910     3.1920 hc         1 GMN       0.074978
     94 H332         5.6720    -3.7510     4.0990 hc         1 GMN       0.074978
     95 H333         5.2940    -4.0330     2.3940 hc         1 GMN       0.074978
     96 O1           1.3860    -0.0010     2.3980 os         1 GMN      -0.347900
@<TRIPOS>BOND
     1     1     5 1
     2     1    17 1
     3     2     3 ar
     4     2     7 ar
     5     2    36 1
     6     3     4 ar
     7     3     8 1
     8     4     5 ar
     9     4    96 1
    10     5     6 ar
    11     6     7 ar
    12     6    37 1
    13     7    38 1
    14    96     9 1
    15     8    25 1
    16     9    10 1
    17     9    39 1
    18     9    40 1
    19    10    33 1
    20    10    41 1
    21    10    42 1
    22    11    12 1
    23    11    33 1
    24    11    43 1
    25    11    44 1
    26    12    45 1
    27    12    46 1
    28    12    47 1
    29    13    14 1
    30    13    33 1
    31    13    48 1
    32    13    49 1
    33    14    50 1
    34    14    51 1
    35    14    52 1
    36    15    16 1
    37    15    33 1
    38    15    53 1
    39    15    54 1
    40    16    55 1
    41    16    56 1
    42    16    57 1
    43    17    18 1
    44    17    58 1
    45    17    59 1
    46    18    34 1
    47    18    60 1
    48    18    61 1
    49    19    20 1
    50    19    34 1
    51    19    62 1
    52    19    63 1
    53    20    64 1
    54    20    65 1
    55    20    66 1
    56    21    22 1
    57    21    34 1
    58    21    67 1
    59    21    68 1
    60    22    69 1
    61    22    70 1
    62    22    71 1
    63    23    24 1
    64    23    34 1
    65    23    72 1
    66    23    73 1
    67    24    74 1
    68    24    75 1
    69    24    76 1
    70    25    26 1
    71    25    77 1
    72    25    78 1
    73    26    35 1
    74    26    79 1
    75    26    80 1
    76    27    28 1
    77    27    35 1
    78    27    81 1
    79    27    82 1
    80    28    83 1
    81    28    84 1
    82    28    85 1
    83    29    30 1
    84    29    35 1
    85    29    86 1
    86    29    87 1
    87    30    88 1
    88    30    89 1
    89    30    90 1
    90    31    32 1
    91    31    35 1
    92    31    91 1
    93    31    92 1
    94    32    93 1
    95    32    94 1
    96    32    95 1
@<TRIPOS>SUBSTRUCTURE
     1 GMN         1 TEMP              0 ****  ****    0 ROOT
