@<TRIPOS>MOLECULE
molecule
   34    36     1     0     0
SMALL
bcc


@<TRIPOS>ATOM
      1 O5'          0.0000     0.0000     0.0000 oh         1 GMP      -0.592800
      2 C5'          1.4300     0.0000     0.0000 c3         1 GMP       0.142400
      3 C4'          1.9400     0.0000     1.4420 c3         1 GMP       0.123100
      4 O4'          1.5940    -1.2390     2.0830 os         1 GMP      -0.391600
      5 C3'          3.4770     0.1090     1.4550 c3         1 GMP       0.093100
      6 O3'          3.8900     1.2840     2.1530 oh         1 GMP      -0.571800
      7 C2'          3.9410    -1.1610     2.2080 c3         1 GMP       0.093100
      8 O2'          5.0190    -0.8620     3.0980 oh         1 GMP      -0.576800
      9 C1'          2.6670    -1.5550     2.9970 c3         1 GMP       0.240800
     10 N9           2.6740    -2.9860     3.3090 na         1 GMP      -0.157900
     11 C8           2.1490    -3.9830     2.5380 cc         1 GMP       0.509400
     12 N7           2.3320    -5.1320     3.1190 nd         1 GMP      -0.617000
     13 C5           2.9850    -4.9430     4.2920 cd         1 GMP       0.309800
     14 C6           3.4400    -5.8060     5.3160 c          1 GMP       0.624000
     15 O6           3.2660    -7.0110     5.2420 o          1 GMP      -0.527500
     16 N1           4.0730    -5.2630     6.3790 ns         1 GMP      -0.469400
     17 C2           4.2620    -3.9150     6.4520 cd         1 GMP       0.444800
     18 N2           4.9080    -3.3900     7.5440 nz         1 GMP      -0.725600
     19 N3           3.8440    -3.1030     5.5080 nc         1 GMP      -0.535100
     20 C4           3.2150    -3.5690     4.4230 cc         1 GMP       0.025800
     21 HO5'        -0.3140     0.2080    -0.8640 ho         1 GMP       0.417000
     22 H5'1         1.7910     0.8850    -0.5110 h1         1 GMP       0.035700
     23 H5'2         1.7910    -0.8840    -0.5110 h1         1 GMP       0.035700
     24 H4'          1.5090     0.8290     1.9910 h1         1 GMP       0.099700
     25 H3'          3.8620     0.1080     0.4420 h1         1 GMP       0.060700
     26 HO3'         4.3490     1.8570     1.5610 ho         1 GMP       0.418000
     27 H2'          4.2150    -1.9430     1.5090 h1         1 GMP       0.064700
     28 HO2'         5.8360    -1.1100     2.6970 ho         1 GMP       0.415000
     29 H1'          2.5820    -0.9620     3.9000 h2         1 GMP       0.114700
     30 H8           1.6520    -3.8380     1.5860 h5         1 GMP       0.113100
     31 HN1          4.4050    -5.8530     7.1150 hn         1 GMP       0.349500
     32 HN21         4.8600    -2.3910     7.5120 hn         1 GMP       0.477467
     33 HN22         5.8670    -3.6790     7.5340 hn         1 GMP       0.477467
     34 H23          4.4690    -3.7190     8.3810 hn         1 GMP       0.477467
@<TRIPOS>BOND
     1     1     2 1
     2     1    21 1
     3     2     3 1
     4     2    22 1
     5     2    23 1
     6     3     4 1
     7     3     5 1
     8     3    24 1
     9     4     9 1
    10     5     6 1
    11     5     7 1
    12     5    25 1
    13     6    26 1
    14     7     8 1
    15     7     9 1
    16     7    27 1
    17     8    28 1
    18     9    10 1
    19     9    29 1
    20    10    11 1
    21    10    20 1
    22    11    12 2
    23    11    30 1
    24    12    13 1
    25    13    14 1
    26    13    20 2
    27    14    15 2
    28    14    16 1
    29    16    17 1
    30    16    31 1
    31    17    18 1
    32    17    19 2
    33    18    32 1
    34    18    33 1
    35    19    20 1
    36    34    18 1
@<TRIPOS>SUBSTRUCTURE
     1 GMP         1 TEMP              0 ****  ****    0 ROOT
