@<TRIPOS>MOLECULE
GMR
   68    70     1     0     0
SMALL
bcc


@<TRIPOS>ATOM
      1 S1           0.0000     0.0000     0.0000 sy         1 GMR       1.053900
      2 O2          -2.6160     0.8280    -0.6050 o          1 GMR      -0.680100
      3 O3           1.4210     0.0000     0.0000 o          1 GMR      -0.570800
      4 O4          -0.7770     0.0000     1.1890 o          1 GMR      -0.570800
      5 O5          -3.0930    -8.1850    -5.7040 o          1 GMR      -0.665500
      6 O6          -3.7010    -4.3330    -6.7950 o          1 GMR      -0.689100
      7 N7          -2.1590     2.6660    -1.7660 ns         1 GMR      -0.204900
      8 N8          -0.4690     1.3320    -0.8640 ns         1 GMR      -0.312300
      9 N9          -3.8430    -6.5320    -7.0710 n          1 GMR      -0.132400
     10 N10         -2.8200    -5.5950    -5.1930 ns         1 GMR      -0.221900
     11 C11         -3.5640     5.8650    -1.8860 c3         1 GMR      -0.054700
     12 C12         -3.5830     2.9370    -1.9800 c3         1 GMR       0.035700
     13 C13         -3.3910     5.0240    -0.6190 c3         1 GMR      -0.026400
     14 C14         -3.0040     5.1020    -3.0870 c3         1 GMR      -0.026400
     15 C15         -4.1430     3.7010    -0.7790 c3         1 GMR      -0.040400
     16 C16         -3.7570     3.7790    -3.2460 c3         1 GMR      -0.040400
     17 C17         -2.8110     7.1880    -1.7270 c3         1 GMR       0.008900
     18 C18         -1.7780     1.5810    -1.0630 c          1 GMR       0.638100
     19 C19         -4.5440    -6.5310    -8.3620 c3         1 GMR       0.092200
     20 C20         -4.7340    -7.9850    -8.7280 c2         1 GMR      -0.106400
     21 C21         -4.1980    -8.7060    -7.7470 ce         1 GMR      -0.214400
     22 C22         -0.4970    -1.4190    -0.9190 ca         1 GMR      -0.162500
     23 C23         -3.6460    -7.8170    -6.7220 c          1 GMR       0.642700
     24 C24         -4.1640   -10.2110    -7.6990 c3         1 GMR       0.055800
     25 C26         -1.2780    -3.6460    -2.3610 ca         1 GMR      -0.034300
     26 C27         -3.4640    -5.4460    -6.3680 c          1 GMR       0.602100
     27 C28         -2.4070    -4.4150    -4.4300 c3         1 GMR       0.065000
     28 C29         -5.4040    -8.5160    -9.9690 c3         1 GMR       0.083100
     29 C30          0.3600    -1.9750    -1.8490 ca         1 GMR       0.018500
     30 C31         -1.7430    -1.9790    -0.7050 ca         1 GMR       0.018500
     31 C32         -0.0300    -3.0880    -2.5710 ca         1 GMR      -0.134000
     32 C33         -2.1330    -3.0930    -1.4260 ca         1 GMR      -0.134000
     33 C34         -2.8290   -10.7100    -8.2570 c3         1 GMR       0.006900
     34 H1          -1.4690     3.2570    -2.1860 hn         1 GMR       0.178500
     35 H2           0.2210     1.9540    -1.2380 hn         1 GMR       0.221500
     36 H3          -2.6200    -6.5110    -4.8450 hn         1 GMR       0.225500
     37 H4          -4.6180     6.0610    -2.0450 hc         1 GMR       0.030700
     38 H5          -4.1200     2.0030    -2.0940 h1         1 GMR       0.054700
     39 H6          -2.3380     4.8220    -0.4630 hc         1 GMR       0.016200
     40 H7          -3.7900     5.5650     0.2300 hc         1 GMR       0.016200
     41 H8          -1.9520     4.9000    -2.9260 hc         1 GMR       0.016200
     42 H9          -3.1300     5.6980    -3.9830 hc         1 GMR       0.016200
     43 H10         -4.0170     3.1050     0.1170 hc         1 GMR       0.027450
     44 H11         -5.1950     3.9020    -0.9400 hc         1 GMR       0.027450
     45 H12         -4.8090     3.9800    -3.4030 hc         1 GMR       0.027450
     46 H13         -3.3570     3.2380    -4.0960 hc         1 GMR       0.027450
     47 H14         -2.9300     7.7810    -2.6250 hc         1 GMR       0.002367
     48 H15         -3.2120     7.7320    -0.8800 hc         1 GMR       0.002367
     49 H16         -1.7600     6.9880    -1.5620 hc         1 GMR       0.002367
     50 H17         -3.9400    -6.0340    -9.1120 h1         1 GMR       0.046700
     51 H18         -5.5060    -6.0430    -8.2630 h1         1 GMR       0.046700
     52 H19         -4.2730   -10.5420    -6.6730 hc         1 GMR       0.022200
     53 H20         -4.9760   -10.6100    -8.2940 hc         1 GMR       0.022200
     54 H21         -2.3820    -5.4560    -2.5500 hc         1 GMR       0.026700
     55 H22         -0.8300    -5.4500    -3.3980 hc         1 GMR       0.026700
     56 H23         -3.2790    -3.8250    -4.1780 h1         1 GMR       0.027200
     57 H24         -1.7270    -3.8190    -5.0270 h1         1 GMR       0.027200
     58 H25         -4.6950    -9.1050   -10.5390 hc         1 GMR       0.015367
     59 H26         -5.7530    -7.6880   -10.5740 hc         1 GMR       0.015367
     60 H27         -6.2460    -9.1370    -9.6880 hc         1 GMR       0.015367
     61 H28          1.3380    -1.5390    -2.0140 ha         1 GMR       0.132000
     62 H29         -2.4130    -1.5460     0.0270 ha         1 GMR       0.132000
     63 H30          0.6420    -3.5240    -3.3000 ha         1 GMR       0.112500
     64 H31         -3.1090    -3.5320    -1.2580 ha         1 GMR       0.112500
     65 H32         -2.4140    -9.9630    -8.9220 hc         1 GMR       0.005033
     66 H33         -2.9880   -11.6320    -8.8030 hc         1 GMR       0.005033
     67 H34         -2.1400   -10.8890    -7.4400 hc         1 GMR       0.005033
     68 C25         -1.7030    -4.8590    -3.1460 c3         1 GMR       0.008900
@<TRIPOS>BOND
     1     1     3 2   
     2     1     4 2   
     3     1     8 1   
     4     1    22 1   
     5     2    18 2   
     6     5    23 2   
     7     6    26 2   
     8     7    12 1   
     9     7    18 1   
    10     7    34 1   
    11     8    18 1   
    12     8    35 1   
    13     9    19 1   
    14     9    23 1   
    15     9    26 1   
    16    10    26 1   
    17    10    27 1   
    18    10    36 1   
    19    11    13 1   
    20    11    14 1   
    21    11    17 1   
    22    11    37 1   
    23    12    15 1   
    24    12    16 1   
    25    12    38 1   
    26    13    15 1   
    27    13    39 1   
    28    13    40 1   
    29    14    16 1   
    30    14    41 1   
    31    14    42 1   
    32    15    43 1   
    33    15    44 1   
    34    16    45 1   
    35    16    46 1   
    36    17    47 1   
    37    17    48 1   
    38    17    49 1   
    39    19    20 1   
    40    19    50 1   
    41    19    51 1   
    42    20    21 2   
    43    20    28 1   
    44    21    23 1   
    45    21    24 1   
    46    22    29 ar  
    47    22    30 ar  
    48    24    33 1   
    49    24    52 1   
    50    24    53 1   
    51    25    31 ar  
    52    25    32 ar  
    53    25    68 1   
    54    27    56 1   
    55    27    57 1   
    56    27    68 1   
    57    28    58 1   
    58    28    59 1   
    59    28    60 1   
    60    29    31 ar  
    61    29    61 1   
    62    30    32 ar  
    63    30    62 1   
    64    31    63 1   
    65    32    64 1   
    66    33    65 1   
    67    33    66 1   
    68    33    67 1   
    69    54    68 1   
    70    55    68 1   
@<TRIPOS>SUBSTRUCTURE
     1 GMR         1 TEMP              0 ****  ****    0 ROOT
