@<TRIPOS>MOLECULE
molecule
   68    70     1     0     0
SMALL
bcc


@<TRIPOS>ATOM
      1 S1           0.0000     0.0000     0.0000 sy         1 GMR       1.430900
      2 O2          -2.6160     0.8280    -0.6050 o          1 GMR      -0.635100
      3 O3           1.4210     0.0000     0.0000 o          1 GMR      -0.618300
      4 O4          -0.7770     0.0000     1.1890 o          1 GMR      -0.618300
      5 O5          -3.0930    -8.1850    -5.7040 o          1 GMR      -0.625500
      6 O6          -3.7010    -4.3330    -6.7950 o          1 GMR      -0.638100
      7 N7          -2.1590     2.6660    -1.7660 ns         1 GMR      -0.581900
      8 N8          -0.4690     1.3320    -0.8640 ns         1 GMR      -0.664300
      9 N9          -3.8430    -6.5320    -7.0710 n          1 GMR      -0.498400
     10 N10         -2.8200    -5.5950    -5.1930 ns         1 GMR      -0.591900
     11 C11         -3.5640     5.8650    -1.8860 c3         1 GMR      -0.076700
     12 C12         -3.5830     2.9370    -1.9800 c3         1 GMR       0.131700
     13 C13         -3.3910     5.0240    -0.6190 c3         1 GMR      -0.075900
     14 C14         -3.0040     5.1020    -3.0870 c3         1 GMR      -0.075900
     15 C15         -4.1430     3.7010    -0.7790 c3         1 GMR      -0.095900
     16 C16         -3.7570     3.7790    -3.2460 c3         1 GMR      -0.095900
     17 C17         -2.8110     7.1880    -1.7270 c3         1 GMR      -0.088100
     18 C18         -1.7780     1.5810    -1.0630 c          1 GMR       0.795100
     19 C19         -4.5440    -6.5310    -8.3620 c3         1 GMR       0.132200
     20 C20         -4.7340    -7.9850    -8.7280 c2         1 GMR      -0.100400
     21 C21         -4.1980    -8.7060    -7.7470 ce         1 GMR      -0.193400
     22 C22         -0.4970    -1.4190    -0.9190 ca         1 GMR      -0.316500
     23 C23         -3.6460    -7.8170    -6.7220 c          1 GMR       0.708700
     24 C24         -4.1640   -10.2110    -7.6990 c3         1 GMR      -0.017200
     25 C26         -1.2780    -3.6460    -2.3610 ca         1 GMR      -0.026300
     26 C27         -3.4640    -5.4460    -6.3680 c          1 GMR       0.800100
     27 C28         -2.4070    -4.4150    -4.4300 c3         1 GMR       0.130000
     28 C29         -5.4040    -8.5160    -9.9690 c3         1 GMR      -0.036900
     29 C30          0.3600    -1.9750    -1.8490 ca         1 GMR      -0.013000
     30 C31         -1.7430    -1.9790    -0.7050 ca         1 GMR      -0.013000
     31 C32         -0.0300    -3.0880    -2.5710 ca         1 GMR      -0.152000
     32 C33         -2.1330    -3.0930    -1.4260 ca         1 GMR      -0.152000
     33 C34         -2.8290   -10.7100    -8.2570 c3         1 GMR      -0.088100
     34 H1          -1.4690     3.2570    -2.1860 hn         1 GMR       0.314500
     35 H2           0.2210     1.9540    -1.2380 hn         1 GMR       0.338500
     36 H3          -2.6200    -6.5110    -4.8450 hn         1 GMR       0.349500
     37 H4          -4.6180     6.0610    -2.0450 hc         1 GMR       0.052700
     38 H5          -4.1200     2.0030    -2.0940 h1         1 GMR       0.080700
     39 H6          -2.3380     4.8220    -0.4630 hc         1 GMR       0.041950
     40 H7          -3.7900     5.5650     0.2300 hc         1 GMR       0.041950
     41 H8          -1.9520     4.9000    -2.9260 hc         1 GMR       0.041950
     42 H9          -3.1300     5.6980    -3.9830 hc         1 GMR       0.041950
     43 H10         -4.0170     3.1050     0.1170 hc         1 GMR       0.056200
     44 H11         -5.1950     3.9020    -0.9400 hc         1 GMR       0.056200
     45 H12         -4.8090     3.9800    -3.4030 hc         1 GMR       0.056200
     46 H13         -3.3570     3.2380    -4.0960 hc         1 GMR       0.056200
     47 H14         -2.9300     7.7810    -2.6250 hc         1 GMR       0.034700
     48 H15         -3.2120     7.7320    -0.8800 hc         1 GMR       0.034700
     49 H16         -1.7600     6.9880    -1.5620 hc         1 GMR       0.034700
     50 H17         -3.9400    -6.0340    -9.1120 h1         1 GMR       0.082200
     51 H18         -5.5060    -6.0430    -8.2630 h1         1 GMR       0.082200
     52 H19         -4.2730   -10.5420    -6.6730 hc         1 GMR       0.055700
     53 H20         -4.9760   -10.6100    -8.2940 hc         1 GMR       0.055700
     54 H21         -2.3820    -5.4560    -2.5500 hc         1 GMR       0.060700
     55 H22         -0.8300    -5.4500    -3.3980 hc         1 GMR       0.060700
     56 H23         -3.2790    -3.8250    -4.1780 h1         1 GMR       0.056200
     57 H24         -1.7270    -3.8190    -5.0270 h1         1 GMR       0.056200
     58 H25         -4.6950    -9.1050   -10.5390 hc         1 GMR       0.055033
     59 H26         -5.7530    -7.6880   -10.5740 hc         1 GMR       0.055033
     60 H27         -6.2460    -9.1370    -9.6880 hc         1 GMR       0.055033
     61 H28          1.3380    -1.5390    -2.0140 ha         1 GMR       0.160000
     62 H29         -2.4130    -1.5460     0.0270 ha         1 GMR       0.160000
     63 H30          0.6420    -3.5240    -3.3000 ha         1 GMR       0.139000
     64 H31         -3.1090    -3.5320    -1.2580 ha         1 GMR       0.139000
     65 H32         -2.4140    -9.9630    -8.9220 hc         1 GMR       0.039367
     66 H33         -2.9880   -11.6320    -8.8030 hc         1 GMR       0.039367
     67 H34         -2.1400   -10.8890    -7.4400 hc         1 GMR       0.039367
     68 C25         -1.7030    -4.8590    -3.1460 c3         1 GMR      -0.062100
@<TRIPOS>BOND
     1     6    26 2
     2    68    27 1
     3    68    25 1
     4    27    10 1
     5    26    10 1
     6    26     9 1
     7    19     9 1
     8    19    20 1
     9    25    32 ar
    10    25    31 ar
    11    32    30 ar
    12     9    23 1
    13    31    29 ar
    14    20    28 1
    15    20    21 2
    16    30    22 ar
    17    23     5 2
    18    23    21 1
    19    21    24 1
    20    29    22 ar
    21    22     1 1
    22     4     1 2
    23    24    33 1
    24     1     8 1
    25     1     3 2
    26     8    18 1
    27    15    12 1
    28    15    13 1
    29     2    18 2
    30    18     7 1
    31     7    12 1
    32    12    16 1
    33    13    11 1
    34    16    14 1
    35    11    14 1
    36    11    17 1
    37     7    34 1
    38     8    35 1
    39    10    36 1
    40    11    37 1
    41    12    38 1
    42    13    39 1
    43    13    40 1
    44    14    41 1
    45    14    42 1
    46    15    43 1
    47    15    44 1
    48    16    45 1
    49    16    46 1
    50    17    47 1
    51    17    48 1
    52    17    49 1
    53    19    50 1
    54    19    51 1
    55    24    52 1
    56    24    53 1
    57    68    54 1
    58    68    55 1
    59    27    56 1
    60    27    57 1
    61    28    58 1
    62    28    59 1
    63    28    60 1
    64    29    61 1
    65    30    62 1
    66    31    63 1
    67    32    64 1
    68    33    65 1
    69    33    66 1
    70    33    67 1
@<TRIPOS>SUBSTRUCTURE
     1 GMR         1 TEMP              0 ****  ****    0 ROOT
