@<TRIPOS>MOLECULE
GMT
   40    40     1     0     0
SMALL
bcc


@<TRIPOS>ATOM
      1 O16          0.0000     0.0000     0.0000 o          1 GMT      -0.933800
      2 C12          1.2080     0.0000     0.0000 c          1 GMT       0.985600
      3 O15          1.8800     0.0000     1.1620 o          1 GMT      -0.933800
      4 C11          1.9620    -0.0040    -1.3060 c3         1 GMT      -0.132400
      5 C9           0.9660    -0.0090    -2.4680 c3         1 GMT       0.094100
      6 C10          1.7150     0.1100    -3.7710 c          1 GMT       0.980600
      7 O14          2.3520     1.2510    -4.0770 o          1 GMT      -0.918300
      8 O13          1.7430    -0.8220    -4.5390 o          1 GMT      -0.918300
      9 O1           0.2250    -1.2300    -2.4550 os         1 GMT      -0.405600
     10 C1          -1.1920    -1.0500    -2.4710 c3         1 GMT       0.355900
     11 O5          -1.6030    -0.6130    -3.7680 os         1 GMT      -0.411600
     12 C5          -1.2610    -1.5150    -4.8230 c3         1 GMT       0.117100
     13 C6          -1.7210    -0.9350    -6.1610 c3         1 GMT       0.229400
     14 O6          -0.9920     0.2640    -6.4360 oh         1 GMT      -0.527800
     15 C4          -1.9510    -2.8610    -4.5850 c3         1 GMT       0.149100
     16 O4          -1.5640    -3.7820    -5.6070 oh         1 GMT      -0.581800
     17 C3          -1.5310    -3.4070    -3.2180 c3         1 GMT       0.151100
     18 O3          -2.2240    -4.6290    -2.9570 oh         1 GMT      -0.611800
     19 C2          -1.8790    -2.3770    -2.1390 c3         1 GMT      -0.024300
     20 N2          -1.4150    -2.8570    -0.8350 ns         1 GMT      -0.139900
     21 C7          -2.0070    -2.4180     0.2930 c          1 GMT       0.601100
     22 O7          -2.9230    -1.6260     0.2290 o          1 GMT      -0.680100
     23 C8          -1.5290    -2.9110     1.6350 c3         1 GMT      -0.063100
     24 H2           2.5850    -0.8880    -1.3600 hc         1 GMT       0.021200
     25 H3           2.5840     0.8810    -1.3670 hc         1 GMT       0.021200
     26 H4           0.2860     0.8280    -2.3650 h1         1 GMT       0.027700
     27 H6          -1.4750    -0.3060    -1.7360 h2         1 GMT       0.095700
     28 H7          -0.1870    -1.6600    -4.8380 h1         1 GMT       0.127700
     29 H8          -1.5410    -1.6560    -6.9490 h1         1 GMT      -0.034300
     30 H9          -2.7800    -0.7100    -6.1120 h1         1 GMT      -0.034300
     31 H10         -1.2260     0.5850    -7.2910 ho         1 GMT       0.347000
     32 H11         -3.0250    -2.7230    -4.6030 h1         1 GMT      -0.004300
     33 H12         -2.3330    -4.1860    -5.9740 ho         1 GMT       0.366000
     34 H13         -0.4620    -3.5850    -3.2140 h1         1 GMT       0.049700
     35 H14         -1.6010    -5.3300    -2.8610 ho         1 GMT       0.380000
     36 H15         -2.9530    -2.2310    -2.1150 h1         1 GMT       0.052700
     37 H16         -0.6830    -3.5370    -0.7840 hn         1 GMT       0.163500
     38 H17         -2.1470    -3.7410     1.9560 hc         1 GMT       0.013700
     39 H18         -1.5960    -2.1090     2.3600 hc         1 GMT       0.013700
     40 H19         -0.4990    -3.2390     1.5530 hc         1 GMT       0.013700
@<TRIPOS>BOND
     1     1     2 1   
     2     2     3 1   
     3     2     4 1   
     4     4     5 1   
     5     4    24 1   
     6     4    25 1   
     7     5     6 1   
     8     5     9 1   
     9     5    26 1   
    10     6     7 1   
    11     6     8 1   
    12     9    10 1   
    13    10    11 1   
    14    10    19 1   
    15    10    27 1   
    16    11    12 1   
    17    12    13 1   
    18    12    15 1   
    19    12    28 1   
    20    13    14 1   
    21    13    29 1   
    22    13    30 1   
    23    14    31 1   
    24    15    16 1   
    25    15    17 1   
    26    15    32 1   
    27    16    33 1   
    28    17    18 1   
    29    17    19 1   
    30    17    34 1   
    31    18    35 1   
    32    19    20 1   
    33    19    36 1   
    34    20    21 1   
    35    20    37 1   
    36    21    22 2   
    37    21    23 1   
    38    23    38 1   
    39    23    39 1   
    40    23    40 1   
@<TRIPOS>SUBSTRUCTURE
     1 GMT         1 TEMP              0 ****  ****    0 ROOT
