@<TRIPOS>MOLECULE
molecule
   40    40     1     0     0
SMALL
bcc


@<TRIPOS>ATOM
      1 O16          0.0000     0.0000     0.0000 o          1 GMT      -0.886800
      2 C12          1.2080     0.0000     0.0000 c          1 GMT       0.892600
      3 O15          1.8800     0.0000     1.1620 o          1 GMT      -0.886800
      4 C11          1.9620    -0.0040    -1.3060 c3         1 GMT      -0.172400
      5 C9           0.9660    -0.0090    -2.4680 c3         1 GMT       0.059100
      6 C10          1.7150     0.1100    -3.7710 c          1 GMT       0.893600
      7 O14          2.3520     1.2510    -4.0770 o          1 GMT      -0.870300
      8 O13          1.7430    -0.8220    -4.5390 o          1 GMT      -0.870300
      9 O1           0.2250    -1.2300    -2.4550 os         1 GMT      -0.422600
     10 C1          -1.1920    -1.0500    -2.4710 c3         1 GMT       0.321900
     11 O5          -1.6030    -0.6130    -3.7680 os         1 GMT      -0.431600
     12 C5          -1.2610    -1.5150    -4.8230 c3         1 GMT       0.128100
     13 C6          -1.7210    -0.9350    -6.1610 c3         1 GMT       0.157400
     14 O6          -0.9920     0.2640    -6.4360 oh         1 GMT      -0.549800
     15 C4          -1.9510    -2.8610    -4.5850 c3         1 GMT       0.110100
     16 O4          -1.5640    -3.7820    -5.6070 oh         1 GMT      -0.603800
     17 C3          -1.5310    -3.4070    -3.2180 c3         1 GMT       0.112100
     18 O3          -2.2240    -4.6290    -2.9570 oh         1 GMT      -0.630800
     19 C2          -1.8790    -2.3770    -2.1390 c3         1 GMT       0.099700
     20 N2          -1.4150    -2.8570    -0.8350 ns         1 GMT      -0.548900
     21 C7          -2.0070    -2.4180     0.2930 c          1 GMT       0.691100
     22 O7          -2.9230    -1.6260     0.2290 o          1 GMT      -0.637100
     23 C8          -1.5290    -2.9110     1.6350 c3         1 GMT      -0.159100
     24 H2           2.5850    -0.8880    -1.3600 hc         1 GMT       0.045700
     25 H3           2.5840     0.8810    -1.3670 hc         1 GMT       0.045700
     26 H4           0.2860     0.8280    -2.3650 h1         1 GMT       0.051700
     27 H6          -1.4750    -0.3060    -1.7360 h2         1 GMT       0.136700
     28 H7          -0.1870    -1.6600    -4.8380 h1         1 GMT       0.151700
     29 H8          -1.5410    -1.6560    -6.9490 h1         1 GMT      -0.000300
     30 H9          -2.7800    -0.7100    -6.1120 h1         1 GMT      -0.000300
     31 H10         -1.2260     0.5850    -7.2910 ho         1 GMT       0.365000
     32 H11         -3.0250    -2.7230    -4.6030 h1         1 GMT       0.025700
     33 H12         -2.3330    -4.1860    -5.9740 ho         1 GMT       0.380000
     34 H13         -0.4620    -3.5850    -3.2140 h1         1 GMT       0.083700
     35 H14         -1.6010    -5.3300    -2.8610 ho         1 GMT       0.390000
     36 H15         -2.9530    -2.2310    -2.1150 h1         1 GMT       0.073700
     37 H16         -0.6830    -3.5370    -0.7840 hn         1 GMT       0.309500
     38 H17         -2.1470    -3.7410     1.9560 hc         1 GMT       0.049367
     39 H18         -1.5960    -2.1090     2.3600 hc         1 GMT       0.049367
     40 H19         -0.4990    -3.2390     1.5530 hc         1 GMT       0.049367
@<TRIPOS>BOND
     1    14    13 1
     2    13    12 1
     3    11    12 1
     4    11    10 1
     5    15    12 1
     6    15    16 1
     7    15    17 1
     8    22    21 2
     9    10    19 1
    10    10     9 1
    11    19    17 1
    12    19    20 1
    13    18    17 1
    14     8     6 1
    15    21    20 1
    16    21    23 1
    17     6     5 1
    18     6     7 1
    19     9     5 1
    20     5     4 1
    21     1     2 1
    22     4     2 1
    23     2     3 1
    24     4    24 1
    25     4    25 1
    26     5    26 1
    27    10    27 1
    28    12    28 1
    29    13    29 1
    30    13    30 1
    31    14    31 1
    32    15    32 1
    33    16    33 1
    34    17    34 1
    35    18    35 1
    36    19    36 1
    37    20    37 1
    38    23    38 1
    39    23    39 1
    40    23    40 1
@<TRIPOS>SUBSTRUCTURE
     1 GMT         1 TEMP              0 ****  ****    0 ROOT
