@<TRIPOS>MOLECULE
GMZ
   34    34     1     0     0
SMALL
bcc


@<TRIPOS>ATOM
      1 O5          0.3150    0.5340   -0.2720 os        1 GMZ     -0.443600
      2 C1          1.7160    0.1870   -0.1600 c3        1 GMZ      0.402900
      3 O1          2.3370    1.3810   -0.3330 os        1 GMZ     -0.550200
      4 C2          1.9840   -0.3760    1.2680 c3        1 GMZ      0.053100
      5 O2          1.8570    0.6350    2.2620 oh        1 GMZ     -0.662800
      6 C3          1.0290   -1.5200    1.6290 c3        1 GMZ      0.134100
      7 O3          1.1870   -1.8710    3.0020 oh        1 GMZ     -0.631800
      8 C4         -0.4320   -1.1520    1.3270 c3        1 GMZ      0.100100
      9 O4         -1.1940   -2.3390    1.4890 oh        1 GMZ     -0.646800
     10 C5         -0.5670   -0.5690   -0.0910 c3        1 GMZ      0.104100
     11 C6         -2.0020   -0.0450   -0.3710 c3        1 GMZ      0.115100
     12 O6         -2.5640    0.5020    0.8080 oh        1 GMZ     -0.638800
     13 C7         -2.9300   -1.1130   -1.0160 c3        1 GMZ      0.167400
     14 O7         -3.7700   -1.6690   -0.0780 os        1 GMZ     -0.588200
     15 P2         -5.3880   -2.0650   -0.6160 p5        1 GMZ      1.323900
     16 OP4        -5.2420   -3.4640   -1.1520 o         1 GMZ     -0.936833
     17 OP5        -6.1620   -1.9380    0.6690 o         1 GMZ     -0.936833
     18 OP6        -5.6840   -1.0190   -1.6590 o         1 GMZ     -0.936833
     19 P1          3.8500    1.3720   -1.2290 p5        1 GMZ      1.323900
     20 OP1         4.3460   -0.0100   -0.8920 o         1 GMZ     -0.934167
     21 OP2         3.4700    1.5880   -2.6660 o         1 GMZ     -0.934167
     22 OP3         4.5900    2.5110   -0.5800 o         1 GMZ     -0.934167
     23 H1          2.0020   -0.5810   -0.9300 h2        1 GMZ      0.042700
     24 H2          3.0460   -0.7490    1.3100 h1        1 GMZ      0.074700
     25 H3          1.8000    1.4760    1.7800 ho        1 GMZ      0.442000
     26 H4          1.3120   -2.4520    1.0680 h1        1 GMZ      0.062700
     27 H5          1.0350   -1.0580    3.4990 ho        1 GMZ      0.395000
     28 H6         -0.7810   -0.3830    2.0730 h1        1 GMZ      0.044700
     29 H7         -2.0570   -2.1920    1.0620 ho        1 GMZ      0.454000
     30 H8         -0.3140   -1.3740   -0.8380 h1        1 GMZ      0.026700
     31 H9         -1.8970    0.8280   -1.0760 h1        1 GMZ      0.051700
     32 H10        -3.1840   -0.1530    1.1670 ho        1 GMZ      0.429000
     33 H11        -3.5360   -0.6200   -1.8290 h1        1 GMZ      0.012700
     34 H12        -2.2700   -1.9040   -1.4790 h1        1 GMZ      0.012700
@<TRIPOS>BOND
     1    1    2 1   
     2    1   10 1   
     3    2    3 1   
     4    2    4 1   
     5    2   23 1   
     6    3   19 1   
     7    4    5 1   
     8    4    6 1   
     9    4   24 1   
    10    5   25 1   
    11    6    7 1   
    12    6    8 1   
    13    6   26 1   
    14    7   27 1   
    15    8    9 1   
    16    8   10 1   
    17    8   28 1   
    18    9   29 1   
    19   10   11 1   
    20   10   30 1   
    21   11   12 1   
    22   11   13 1   
    23   11   31 1   
    24   12   32 1   
    25   13   14 1   
    26   13   33 1   
    27   13   34 1   
    28   14   15 1   
    29   15   16 1   
    30   15   17 1   
    31   15   18 1   
    32   19   20 1   
    33   19   21 1   
    34   19   22 1   
@<TRIPOS>SUBSTRUCTURE
     1 GMZ         1 TEMP              0 ****  ****    0 ROOT
