@<TRIPOS>MOLECULE
molecule
   34    34     1     0     0
SMALL
bcc


@<TRIPOS>ATOM
      1 O5           0.0000     0.0000     0.0000 os         1 GMZ      -0.368600
      2 C1           1.4290     0.0000     0.0000 c3         1 GMZ       0.417900
      3 O1           1.9050     1.1680    -0.6740 os         1 GMZ      -0.541200
      4 C2           1.9380     0.0000     1.4440 c3         1 GMZ       0.097100
      5 O2           1.5060     1.1930     2.1030 oh         1 GMZ      -0.578800
      6 C3           1.3750    -1.2210     2.1750 c3         1 GMZ       0.093100
      7 O3           1.7850    -1.1900     3.5440 oh         1 GMZ      -0.631800
      8 C4          -0.1550    -1.1890     2.0980 c3         1 GMZ       0.110100
      9 O4          -0.6890    -2.3620     2.7150 oh         1 GMZ      -0.592800
     10 C5          -0.5830    -1.1430     0.6290 c3         1 GMZ       0.161100
     11 C6          -2.1080    -1.0500     0.5450 c3         1 GMZ       0.145100
     12 O6          -2.6910    -2.1920     1.1760 oh         1 GMZ      -0.622800
     13 C7          -2.5360    -1.0040    -0.9240 c3         1 GMZ       0.197400
     14 O7          -3.9480    -0.8000    -1.0020 os         1 GMZ      -0.612200
     15 P2          -4.7430    -0.6990    -2.3980 p5         1 GMZ       1.214900
     16 OP4         -4.6550    -2.1110    -3.1680 o          1 GMZ      -0.928167
     17 OP5         -6.2860    -0.3380    -2.1130 o          1 GMZ      -0.928167
     18 OP6         -4.1360     0.3570    -3.2370 o          1 GMZ      -0.928167
     19 P1           2.1970     1.2090    -2.2560 p5         1 GMZ       1.158900
     20 OP1          3.4130     0.2110    -2.6040 o          1 GMZ      -0.898833
     21 OP2          0.9860     0.7850    -2.9930 o          1 GMZ      -0.898833
     22 OP3          2.5930     2.7080    -2.6910 o          1 GMZ      -0.898833
     23 H1           1.7880    -0.8870    -0.5070 h2         1 GMZ       0.036700
     24 H2           3.0200    -0.0480     1.4440 h1         1 GMZ       0.022700
     25 H3           2.2560     1.7220     2.3190 ho         1 GMZ       0.376000
     26 H4           1.7400    -2.1250     1.7030 h1         1 GMZ       0.039700
     27 H5           2.4320    -1.8600     3.6940 ho         1 GMZ       0.366000
     28 H6          -0.5220    -0.3060     2.6080 h1         1 GMZ       0.054700
     29 H7          -0.8410    -2.1940     3.6310 ho         1 GMZ       0.364000
     30 H8          -0.2430    -2.0410     0.1280 h1         1 GMZ       0.047700
     31 H9          -2.4430    -0.1500     1.0470 h1         1 GMZ       0.025700
     32 H10         -3.5180    -1.9520     1.5590 ho         1 GMZ       0.387000
     33 H11         -2.2790    -1.9400    -1.4040 h1         1 GMZ       0.057200
     34 H12         -2.0250    -0.1900    -1.4230 h1         1 GMZ       0.057200
@<TRIPOS>BOND
     1     9     8 1
     2     7     6 1
     3     6     8 1
     4     6     4 1
     5     8    10 1
     6    10    11 1
     7    10     1 1
     8    12    11 1
     9    11    13 1
    10     4     2 1
    11     4     5 1
    12     1     2 1
    13    18    15 1
    14     2     3 1
    15    14    13 1
    16    14    15 1
    17    16    15 1
    18    15    17 1
    19    21    19 1
    20     3    19 1
    21    19    20 1
    22    19    22 1
    23     2    23 1
    24     4    24 1
    25     5    25 1
    26     6    26 1
    27     7    27 1
    28     8    28 1
    29     9    29 1
    30    10    30 1
    31    11    31 1
    32    12    32 1
    33    13    33 1
    34    13    34 1
@<TRIPOS>SUBSTRUCTURE
     1 GMZ         1 TEMP              0 ****  ****    0 ROOT
