@<TRIPOS>MOLECULE
GN0
   56    60     1     0     0
SMALL
bcc


@<TRIPOS>ATOM
      1 C4           0.0000     0.0000     0.0000 ca         1 GN0      -0.069000
      2 C5           1.3830     0.0000     0.0000 ca         1 GN0      -0.133300
      3 C6           2.0780     0.0000     1.1960 ca         1 GN0      -0.069000
      4 C8           2.1360     0.0010    -1.3050 c3         1 GN0       0.160000
      5 C9           2.3760     1.4230    -1.7410 cc         1 GN0      -0.147300
      6 C10          3.4650     2.1070    -1.3880 cd         1 GN0       0.016900
      7 C12          1.8510     3.3670    -2.8380 cd         1 GN0       0.012900
      8 C13          1.4870     2.1170    -2.5440 cc         1 GN0      -0.124000
      9 C3          -0.6920     0.0040     1.1940 ca         1 GN0      -0.137500
     10 C1           1.3920    -0.0010     2.3950 ca         1 GN0      -0.137500
     11 C2           0.0020     0.0100     2.3980 ca         1 GN0       0.031600
     12 N7          -0.6950     0.0100     3.6080 nh         1 GN0      -0.356000
     13 S11          3.3980     3.7230    -2.0810 ss         1 GN0      -0.260800
     14 N14          1.3410    -0.6890    -2.3220 ns         1 GN0      -0.207900
     15 C15          1.9300    -1.1940    -3.4230 c          1 GN0       0.641700
     16 C16          3.3910    -1.1760    -3.5400 ce         1 GN0      -0.119600
     17 C17          4.1410    -0.9210    -2.4510 c2         1 GN0       0.187900
     18 C18          3.4790    -0.7000    -1.1160 c3         1 GN0      -0.033200
     19 O19          5.4870    -0.8630    -2.5550 oh         1 GN0      -0.482100
     20 O20          1.2520    -1.6640    -4.3170 o          1 GN0      -0.648500
     21 S21          4.1610    -1.4860    -5.0940 ss         1 GN0      -0.255500
     22 C22          3.6630    -0.1030    -6.0660 ca         1 GN0       0.086900
     23 C23          2.9540     0.9390    -5.4820 ca         1 GN0      -0.114000
     24 C24          2.5650     2.0210    -6.2470 ca         1 GN0      -0.088000
     25 C25          2.8820     2.0690    -7.5930 ca         1 GN0      -0.098000
     26 C26          3.5890     1.0350    -8.1770 ca         1 GN0      -0.090000
     27 C27          3.9850    -0.0500    -7.4190 ca         1 GN0      -0.017600
     28 Cl           4.8770    -1.3450    -8.1520 cl         1 GN0      -0.002400
     29 C29         -2.1480     0.0230     3.3800 c3         1 GN0       0.093300
     30 C30         -2.8710    -0.0380     4.7280 c3         1 GN0       0.213400
     31 O31         -2.4420     1.0550     5.5430 os         1 GN0      -0.408600
     32 C32         -1.0330     1.0730     5.7870 c3         1 GN0       0.213400
     33 C33         -0.2910     1.1460     4.4500 c3         1 GN0       0.093300
     34 H1          -0.5410    -0.0030    -0.9390 ha         1 GN0       0.110000
     35 H2           3.1610    -0.0040     1.1930 ha         1 GN0       0.110000
     36 H3           4.2670     1.7270    -0.7670 h4         1 GN0       0.157000
     37 H4           1.2820     4.0560    -3.4500 h4         1 GN0       0.151000
     38 H5           0.5640     1.6790    -2.9050 ha         1 GN0       0.129000
     39 H6          -1.7750     0.0080     1.1930 ha         1 GN0       0.122000
     40 H7           1.9360     0.0020     3.3310 ha         1 GN0       0.122000
     41 H8           0.3530    -0.7860    -2.1990 hn         1 GN0       0.203500
     42 H10          3.3180    -1.6570    -0.6340 hc         1 GN0       0.052200
     43 H11          4.1190    -0.0840    -0.4970 hc         1 GN0       0.052200
     44 H12          2.7050     0.9020    -4.4280 ha         1 GN0       0.125000
     45 H13          2.0120     2.8340    -5.7920 ha         1 GN0       0.101000
     46 H14          2.5750     2.9190    -8.1900 ha         1 GN0       0.104000
     47 H15          3.8370     1.0770    -9.2310 ha         1 GN0       0.114000
     48 H16         -2.4260    -0.8370     2.7820 h1         1 GN0       0.027700
     49 H17         -2.4240     0.9340     2.8640 h1         1 GN0       0.027700
     50 H18         -3.9400     0.0300     4.5660 h1         1 GN0       0.015450
     51 H19         -2.6330    -0.9720     5.2220 h1         1 GN0       0.015450
     52 H20         -0.7460     0.1690     6.3100 h1         1 GN0       0.015450
     53 H21         -0.7810     1.9400     6.3860 h1         1 GN0       0.015450
     54 H22         -0.5400     2.0730     3.9490 h1         1 GN0       0.027700
     55 H23          0.7770     1.1000     4.6270 h1         1 GN0       0.027700
     56 H9           5.8530    -1.7130    -2.3730 ho         1 GN0       0.420000
@<TRIPOS>BOND
     1     1     2 ar  
     2     1     9 ar  
     3     1    34 1   
     4     2     3 ar  
     5     2     4 1   
     6     3    10 ar  
     7     3    35 1   
     8     4     5 1   
     9     4    14 1   
    10     4    18 1   
    11     5     6 2   
    12     5     8 1   
    13     6    13 1   
    14     6    36 1   
    15     7     8 2   
    16     7    13 1   
    17     7    37 1   
    18     8    38 1   
    19     9    11 ar  
    20     9    39 1   
    21    10    11 ar  
    22    10    40 1   
    23    11    12 1   
    24    12    29 1   
    25    12    33 1   
    26    14    15 1   
    27    14    41 1   
    28    15    16 1   
    29    15    20 2   
    30    16    17 2   
    31    16    21 1   
    32    17    18 1   
    33    17    19 1   
    34    18    42 1   
    35    18    43 1   
    36    19    56 1   
    37    21    22 1   
    38    22    23 ar  
    39    22    27 ar  
    40    23    24 ar  
    41    23    44 1   
    42    24    25 ar  
    43    24    45 1   
    44    25    26 ar  
    45    25    46 1   
    46    26    27 ar  
    47    26    47 1   
    48    27    28 1   
    49    29    30 1   
    50    29    48 1   
    51    29    49 1   
    52    30    31 1   
    53    30    50 1   
    54    30    51 1   
    55    31    32 1   
    56    32    33 1   
    57    32    52 1   
    58    32    53 1   
    59    33    54 1   
    60    33    55 1   
@<TRIPOS>SUBSTRUCTURE
     1 GN0         1 TEMP              0 ****  ****    0 ROOT
