@<TRIPOS>MOLECULE
molecule
   56    60     1     0     0
SMALL
bcc


@<TRIPOS>ATOM
      1 C4           0.0000     0.0000     0.0000 ca         1 GN0      -0.094500
      2 C5           1.3830     0.0000     0.0000 ca         1 GN0      -0.116300
      3 C6           2.0780     0.0000     1.1960 ca         1 GN0      -0.094500
      4 C8           2.1360     0.0010    -1.3050 c3         1 GN0       0.249000
      5 C9           2.3760     1.4230    -1.7410 cc         1 GN0      -0.136300
      6 C10          3.4650     2.1070    -1.3880 cd         1 GN0      -0.059100
      7 C12          1.8510     3.3670    -2.8380 cd         1 GN0      -0.073100
      8 C13          1.4870     2.1170    -2.5440 cc         1 GN0      -0.144000
      9 C3          -0.6920     0.0040     1.1940 ca         1 GN0      -0.160000
     10 C1           1.3920    -0.0010     2.3950 ca         1 GN0      -0.160000
     11 C2           0.0020     0.0100     2.3980 ca         1 GN0       0.112600
     12 N7          -0.6950     0.0100     3.6080 nh         1 GN0      -0.594000
     13 S11          3.3980     3.7230    -2.0810 ss         1 GN0      -0.143800
     14 N14          1.3410    -0.6890    -2.3220 ns         1 GN0      -0.578900
     15 C15          1.9300    -1.1940    -3.4230 c          1 GN0       0.713700
     16 C16          3.3910    -1.1760    -3.5400 ce         1 GN0      -0.137600
     17 C17          4.1410    -0.9210    -2.4510 c2         1 GN0       0.160900
     18 C18          3.4790    -0.7000    -1.1160 c3         1 GN0      -0.078200
     19 O19          5.4870    -0.8630    -2.5550 oh         1 GN0      -0.506100
     20 O20          1.2520    -1.6640    -4.3170 o          1 GN0      -0.614500
     21 S21          4.1610    -1.4860    -5.0940 ss         1 GN0      -0.121500
     22 C22          3.6630    -0.1030    -6.0660 ca         1 GN0       0.037900
     23 C23          2.9540     0.9390    -5.4820 ca         1 GN0      -0.123000
     24 C24          2.5650     2.0210    -6.2470 ca         1 GN0      -0.112000
     25 C25          2.8820     2.0690    -7.5930 ca         1 GN0      -0.131000
     26 C26          3.5890     1.0350    -8.1770 ca         1 GN0      -0.108000
     27 C27          3.9850    -0.0500    -7.4190 ca         1 GN0       0.036400
     28 Cl           4.8770    -1.3450    -8.1520 cl         1 GN0      -0.098400
     29 C29         -2.1480     0.0230     3.3800 c3         1 GN0       0.123800
     30 C30         -2.8710    -0.0380     4.7280 c3         1 GN0       0.136900
     31 O31         -2.4420     1.0550     5.5430 os         1 GN0      -0.421600
     32 C32         -1.0330     1.0730     5.7870 c3         1 GN0       0.136900
     33 C33         -0.2910     1.1460     4.4500 c3         1 GN0       0.123800
     34 H1          -0.5410    -0.0030    -0.9390 ha         1 GN0       0.131500
     35 H2           3.1610    -0.0040     1.1930 ha         1 GN0       0.131500
     36 H3           4.2670     1.7270    -0.7670 h4         1 GN0       0.173000
     37 H4           1.2820     4.0560    -3.4500 h4         1 GN0       0.173000
     38 H5           0.5640     1.6790    -2.9050 ha         1 GN0       0.154000
     39 H6          -1.7750     0.0080     1.1930 ha         1 GN0       0.141500
     40 H7           1.9360     0.0020     3.3310 ha         1 GN0       0.141500
     41 H8           0.3530    -0.7860    -2.1990 hn         1 GN0       0.336500
     42 H10          3.3180    -1.6570    -0.6340 hc         1 GN0       0.079200
     43 H11          4.1190    -0.0840    -0.4970 hc         1 GN0       0.079200
     44 H12          2.7050     0.9020    -4.4280 ha         1 GN0       0.146000
     45 H13          2.0120     2.8340    -5.7920 ha         1 GN0       0.130000
     46 H14          2.5750     2.9190    -8.1900 ha         1 GN0       0.133000
     47 H15          3.8370     1.0770    -9.2310 ha         1 GN0       0.143000
     48 H16         -2.4260    -0.8370     2.7820 h1         1 GN0       0.052700
     49 H17         -2.4240     0.9340     2.8640 h1         1 GN0       0.052700
     50 H18         -3.9400     0.0300     4.5660 h1         1 GN0       0.056950
     51 H19         -2.6330    -0.9720     5.2220 h1         1 GN0       0.056950
     52 H20         -0.7460     0.1690     6.3100 h1         1 GN0       0.056950
     53 H21         -0.7810     1.9400     6.3860 h1         1 GN0       0.056950
     54 H22         -0.5400     2.0730     3.9490 h1         1 GN0       0.052700
     55 H23          0.7770     1.1000     4.6270 h1         1 GN0       0.052700
     56 H9           5.8530    -1.7130    -2.3730 ho         1 GN0       0.437000
@<TRIPOS>BOND
     1    31    30 1
     2    31    32 1
     3    30    29 1
     4    32    33 1
     5    29    12 1
     6    33    12 1
     7    12    11 1
     8    11    10 ar
     9    11     9 ar
    10    10     3 ar
    11     9     1 ar
    12     3     2 ar
    13     1     2 ar
    14     2     4 1
    15    18     4 1
    16    18    17 1
    17     4    14 1
    18     4     5 1
    19    19    17 1
    20    17    16 2
    21    14    15 1
    22     5     6 2
    23     5     8 1
    24     6    13 1
    25    16    15 1
    26    16    21 1
    27    15    20 2
    28     8     7 2
    29    13     7 1
    30    21    22 1
    31    23    22 ar
    32    23    24 ar
    33    22    27 ar
    34    24    25 ar
    35    27    28 1
    36    27    26 ar
    37    25    26 ar
    38     1    34 1
    39     3    35 1
    40     6    36 1
    41     7    37 1
    42     8    38 1
    43     9    39 1
    44    10    40 1
    45    14    41 1
    46    18    42 1
    47    18    43 1
    48    23    44 1
    49    24    45 1
    50    25    46 1
    51    26    47 1
    52    29    48 1
    53    29    49 1
    54    30    50 1
    55    30    51 1
    56    32    52 1
    57    32    53 1
    58    33    54 1
    59    33    55 1
    60    19    56 1
@<TRIPOS>SUBSTRUCTURE
     1 GN0         1 TEMP              0 ****  ****    0 ROOT
