@<TRIPOS>MOLECULE
GN2
   56    60     1     0     0
SMALL
bcc


@<TRIPOS>ATOM
      1 C4           0.0000     0.0000     0.0000 ca         1 GN2      -0.062500
      2 C5           1.3830     0.0000     0.0000 ca         1 GN2      -0.152300
      3 C6           2.0780     0.0000     1.1960 ca         1 GN2      -0.062500
      4 C8           2.1340     0.0000    -1.3070 c3         1 GN2       0.160000
      5 C9           2.3890    -1.4220    -1.7350 cc         1 GN2      -0.127300
      6 C10          3.4860    -2.0920    -1.3780 cd         1 GN2       0.009900
      7 C12          1.8800    -3.3790    -2.8120 cd         1 GN2       0.022900
      8 C13          1.5020    -2.1330    -2.5240 cc         1 GN2      -0.130000
      9 C3          -0.6920     0.0060     1.1960 ca         1 GN2      -0.142000
     10 C1           1.3920    -0.0000     2.3950 ca         1 GN2      -0.142000
     11 C2           0.0030     0.0120     2.3990 ca         1 GN2       0.033600
     12 N7          -0.6930     0.0130     3.6090 nh         1 GN2      -0.355000
     13 S11          3.4350    -3.7120    -2.0600 ss         1 GN2      -0.259800
     14 N14          1.3300     0.6730    -2.3280 ns         1 GN2      -0.203900
     15 C15          1.3170     2.0160    -2.4120 c          1 GN2       0.640700
     16 C16          2.2200     2.8070    -1.5690 ce         1 GN2      -0.119600
     17 C17          3.2370     2.1970    -0.9330 c2         1 GN2       0.189900
     18 C18          3.4680     0.7200    -1.1230 c3         1 GN2      -0.036200
     19 O19          4.0520     2.9090    -0.1220 oh         1 GN2      -0.483100
     20 O20          0.5610     2.5720    -3.1860 o          1 GN2      -0.648500
     21 S21          1.9740     4.5430    -1.3920 ss         1 GN2      -0.254500
     22 C22          0.4370     4.6410    -0.5380 ca         1 GN2       0.085900
     23 C23         -0.1810     3.4830    -0.0810 ca         1 GN2      -0.115000
     24 C24         -1.3860     3.5650     0.5890 ca         1 GN2      -0.093000
     25 C25         -1.9780     4.7950     0.8060 ca         1 GN2      -0.098000
     26 C26         -1.3670     5.9500     0.3520 ca         1 GN2      -0.089000
     27 C27         -0.1590     5.8780    -0.3140 ca         1 GN2      -0.017600
     28 Cl           0.6110     7.3290    -0.8760 cl         1 GN2      -0.002400
     29 C29         -0.2870     1.1470     4.4500 c3         1 GN2       0.092300
     30 C30         -1.0290     1.0760     5.7880 c3         1 GN2       0.213400
     31 O31         -2.4380     1.0590     5.5450 os         1 GN2      -0.408600
     32 C32         -2.8690    -0.0340     4.7300 c3         1 GN2       0.213400
     33 C33         -2.1450     0.0260     3.3820 c3         1 GN2       0.092300
     34 H1          -0.5410    -0.0020    -0.9380 ha         1 GN2       0.112500
     35 H2           3.1610    -0.0050     1.1920 ha         1 GN2       0.112500
     36 H3           4.2860    -1.6990    -0.7630 h4         1 GN2       0.154000
     37 H4           1.3160    -4.0800    -3.4150 h4         1 GN2       0.152000
     38 H5           0.5720    -1.7090    -2.8830 ha         1 GN2       0.127000
     39 H6          -1.7750     0.0110     1.1960 ha         1 GN2       0.122000
     40 H7           1.9370     0.0020     3.3310 ha         1 GN2       0.122000
     41 H8           0.7850     0.1300    -2.9680 hn         1 GN2       0.201500
     42 H10          3.9720     0.3220    -0.2510 hc         1 GN2       0.053200
     43 H11          4.0820     0.5650    -2.0010 hc         1 GN2       0.053200
     44 H12          0.2810     2.5180    -0.2500 ha         1 GN2       0.127000
     45 H13         -1.8680     2.6620     0.9460 ha         1 GN2       0.102000
     46 H14         -2.9240     4.8540     1.3300 ha         1 GN2       0.105000
     47 H15         -1.8320     6.9130     0.5250 ha         1 GN2       0.114000
     48 H16         -0.5360     2.0750     3.9490 h1         1 GN2       0.028200
     49 H17          0.7810     1.1010     4.6270 h1         1 GN2       0.028200
     50 H18         -0.7770     1.9430     6.3870 h1         1 GN2       0.014950
     51 H19         -0.7430     0.1720     6.3120 h1         1 GN2       0.014950
     52 H20         -3.9380     0.0360     4.5690 h1         1 GN2       0.014950
     53 H21         -2.6330    -0.9680     5.2250 h1         1 GN2       0.014950
     54 H22         -2.4210     0.9370     2.8650 h1         1 GN2       0.028200
     55 H23         -2.4240    -0.8340     2.7840 h1         1 GN2       0.028200
     56 H9           4.7940     3.2180    -0.6150 ho         1 GN2       0.420000
@<TRIPOS>BOND
     1     1     2 ar  
     2     1     9 ar  
     3     1    34 1   
     4     2     3 ar  
     5     2     4 1   
     6     3    10 ar  
     7     3    35 1   
     8     4     5 1   
     9     4    14 1   
    10     4    18 1   
    11     5     6 2   
    12     5     8 1   
    13     6    13 1   
    14     6    36 1   
    15     7     8 2   
    16     7    13 1   
    17     7    37 1   
    18     8    38 1   
    19     9    11 ar  
    20     9    39 1   
    21    10    11 ar  
    22    10    40 1   
    23    11    12 1   
    24    12    29 1   
    25    12    33 1   
    26    14    15 1   
    27    14    41 1   
    28    15    16 1   
    29    15    20 2   
    30    16    17 2   
    31    16    21 1   
    32    17    18 1   
    33    17    19 1   
    34    18    42 1   
    35    18    43 1   
    36    19    56 1   
    37    21    22 1   
    38    22    23 ar  
    39    22    27 ar  
    40    23    24 ar  
    41    23    44 1   
    42    24    25 ar  
    43    24    45 1   
    44    25    26 ar  
    45    25    46 1   
    46    26    27 ar  
    47    26    47 1   
    48    27    28 1   
    49    29    30 1   
    50    29    48 1   
    51    29    49 1   
    52    30    31 1   
    53    30    50 1   
    54    30    51 1   
    55    31    32 1   
    56    32    33 1   
    57    32    52 1   
    58    32    53 1   
    59    33    54 1   
    60    33    55 1   
@<TRIPOS>SUBSTRUCTURE
     1 GN2         1 TEMP              0 ****  ****    0 ROOT
