@<TRIPOS>MOLECULE
molecule
   56    60     1     0     0
SMALL
bcc


@<TRIPOS>ATOM
      1 C4           0.0000     0.0000     0.0000 ca         1 GN2      -0.086500
      2 C5           1.3830     0.0000     0.0000 ca         1 GN2      -0.135300
      3 C6           2.0780     0.0000     1.1960 ca         1 GN2      -0.086500
      4 C8           2.1340     0.0000    -1.3070 c3         1 GN2       0.249000
      5 C9           2.3890    -1.4220    -1.7350 cc         1 GN2      -0.117300
      6 C10          3.4860    -2.0920    -1.3780 cd         1 GN2      -0.067100
      7 C12          1.8800    -3.3790    -2.8120 cd         1 GN2      -0.061100
      8 C13          1.5020    -2.1330    -2.5240 cc         1 GN2      -0.153000
      9 C3          -0.6920     0.0060     1.1960 ca         1 GN2      -0.165000
     10 C1           1.3920    -0.0000     2.3950 ca         1 GN2      -0.165000
     11 C2           0.0030     0.0120     2.3990 ca         1 GN2       0.114600
     12 N7          -0.6930     0.0130     3.6090 nh         1 GN2      -0.595000
     13 S11          3.4350    -3.7120    -2.0600 ss         1 GN2      -0.139800
     14 N14          1.3300     0.6730    -2.3280 ns         1 GN2      -0.577900
     15 C15          1.3170     2.0160    -2.4120 c          1 GN2       0.713700
     16 C16          2.2200     2.8070    -1.5690 ce         1 GN2      -0.138600
     17 C17          3.2370     2.1970    -0.9330 c2         1 GN2       0.161900
     18 C18          3.4680     0.7200    -1.1230 c3         1 GN2      -0.079200
     19 O19          4.0520     2.9090    -0.1220 oh         1 GN2      -0.506100
     20 O20          0.5610     2.5720    -3.1860 o          1 GN2      -0.614500
     21 S21          1.9740     4.5430    -1.3920 ss         1 GN2      -0.120500
     22 C22          0.4370     4.6410    -0.5380 ca         1 GN2       0.036900
     23 C23         -0.1810     3.4830    -0.0810 ca         1 GN2      -0.123000
     24 C24         -1.3860     3.5650     0.5890 ca         1 GN2      -0.114000
     25 C25         -1.9780     4.7950     0.8060 ca         1 GN2      -0.131000
     26 C26         -1.3670     5.9500     0.3520 ca         1 GN2      -0.108000
     27 C27         -0.1590     5.8780    -0.3140 ca         1 GN2       0.037400
     28 Cl           0.6110     7.3290    -0.8760 cl         1 GN2      -0.099400
     29 C29         -0.2870     1.1470     4.4500 c3         1 GN2       0.124800
     30 C30         -1.0290     1.0760     5.7880 c3         1 GN2       0.136900
     31 O31         -2.4380     1.0590     5.5450 os         1 GN2      -0.422600
     32 C32         -2.8690    -0.0340     4.7300 c3         1 GN2       0.136900
     33 C33         -2.1450     0.0260     3.3820 c3         1 GN2       0.124800
     34 H1          -0.5410    -0.0020    -0.9380 ha         1 GN2       0.135500
     35 H2           3.1610    -0.0050     1.1920 ha         1 GN2       0.135500
     36 H3           4.2860    -1.6990    -0.7630 h4         1 GN2       0.171000
     37 H4           1.3160    -4.0800    -3.4150 h4         1 GN2       0.176000
     38 H5           0.5720    -1.7090    -2.8830 ha         1 GN2       0.148000
     39 H6          -1.7750     0.0110     1.1960 ha         1 GN2       0.140000
     40 H7           1.9370     0.0020     3.3310 ha         1 GN2       0.140000
     41 H8           0.7850     0.1300    -2.9680 hn         1 GN2       0.336500
     42 H10          3.9720     0.3220    -0.2510 hc         1 GN2       0.079200
     43 H11          4.0820     0.5650    -2.0010 hc         1 GN2       0.079200
     44 H12          0.2810     2.5180    -0.2500 ha         1 GN2       0.147000
     45 H13         -1.8680     2.6620     0.9460 ha         1 GN2       0.129000
     46 H14         -2.9240     4.8540     1.3300 ha         1 GN2       0.134000
     47 H15         -1.8320     6.9130     0.5250 ha         1 GN2       0.144000
     48 H16         -0.5360     2.0750     3.9490 h1         1 GN2       0.052950
     49 H17          0.7810     1.1010     4.6270 h1         1 GN2       0.052950
     50 H18         -0.7770     1.9430     6.3870 h1         1 GN2       0.056700
     51 H19         -0.7430     0.1720     6.3120 h1         1 GN2       0.056700
     52 H20         -3.9380     0.0360     4.5690 h1         1 GN2       0.056700
     53 H21         -2.6330    -0.9680     5.2250 h1         1 GN2       0.056700
     54 H22         -2.4210     0.9370     2.8650 h1         1 GN2       0.052950
     55 H23         -2.4240    -0.8340     2.7840 h1         1 GN2       0.052950
     56 H9           4.7940     3.2180    -0.6150 ho         1 GN2       0.436000
@<TRIPOS>BOND
     1    31    30 1
     2    31    32 1
     3    30    29 1
     4    29    12 1
     5    32    33 1
     6    12    33 1
     7    12    11 1
     8    11    10 ar
     9    11     9 ar
    10    10     3 ar
    11     9     1 ar
    12     3     2 ar
    13     1     2 ar
    14     2     4 1
    15    14     4 1
    16    14    15 1
    17     4    18 1
    18     4     5 1
    19    20    15 2
    20    15    16 1
    21    18    17 1
    22     5     6 2
    23     5     8 1
    24     6    13 1
    25    16    17 2
    26    16    21 1
    27    17    19 1
    28     8     7 2
    29    13     7 1
    30    21    22 1
    31    23    22 ar
    32    23    24 ar
    33    22    27 ar
    34    24    25 ar
    35    27    28 1
    36    27    26 ar
    37    25    26 ar
    38     1    34 1
    39     3    35 1
    40     6    36 1
    41     7    37 1
    42     8    38 1
    43     9    39 1
    44    10    40 1
    45    14    41 1
    46    18    42 1
    47    18    43 1
    48    23    44 1
    49    24    45 1
    50    25    46 1
    51    26    47 1
    52    29    48 1
    53    29    49 1
    54    30    50 1
    55    30    51 1
    56    32    52 1
    57    32    53 1
    58    33    54 1
    59    33    55 1
    60    19    56 1
@<TRIPOS>SUBSTRUCTURE
     1 GN2         1 TEMP              0 ****  ****    0 ROOT
