@<TRIPOS>MOLECULE
GN5
   40    42     1     0     0
SMALL
bcc


@<TRIPOS>ATOM
      1 CAA          0.0000     0.0000     0.0000 c3         1 GN5       0.005567
      2 CAB          1.5290     0.0000     0.0000 c3         1 GN5      -0.015700
      3 CAC          2.0390     0.0000     1.4430 c3         1 GN5       0.005567
      4 CAD          2.0400    -1.2500    -0.7210 c3         1 GN5       0.005567
      5 CAE          2.0320     1.2300    -0.7110 ca         1 GN5      -0.066300
      6 CAJ          1.6990     2.4860    -0.2390 ca         1 GN5      -0.108000
      7 CAI          2.1600     3.6140    -0.8900 ca         1 GN5      -0.077000
      8 CAF          2.8320     1.1020    -1.8300 ca         1 GN5      -0.108000
      9 CAG          3.2930     2.2310    -2.4820 ca         1 GN5      -0.077000
     10 CAH          2.9550     3.4870    -2.0140 ca         1 GN5      -0.147300
     11 CAK          3.4580     4.7170    -2.7250 c3         1 GN5       0.262200
     12 NAL          2.4910     5.8020    -2.5550 ns         1 GN5      -0.232900
     13 CAM          1.4770     5.9730    -3.4300 c          1 GN5       0.656100
     14 OAN          0.6420     6.8370    -3.2430 o          1 GN5      -0.673500
     15 CAO          1.3960     5.0990    -4.6120 ca         1 GN5      -0.313900
     16 CAU          0.2460     5.0210    -5.3950 ca         1 GN5       0.020000
     17 CAT          0.2650     4.1750    -6.4920 ca         1 GN5      -0.251300
     18 CAS          1.4070     3.4460    -6.7730 ca         1 GN5       0.438200
     19 NAR          2.4850     3.5340    -6.0160 nb         1 GN5      -0.578000
     20 CAP          2.5190     4.3220    -4.9570 ca         1 GN5       0.507200
     21 NAQ          3.6400     4.4140    -4.1490 nu         1 GN5      -0.519900
     22 HAA1        -0.3610     0.1480    -1.0110 hc         1 GN5       0.007589
     23 HAA2        -0.3610     0.8010     0.6330 hc         1 GN5       0.007589
     24 HAA3        -0.3610    -0.9490     0.3770 hc         1 GN5       0.007589
     25 HAC1         3.1120     0.1500     1.4470 hc         1 GN5       0.007589
     26 HAC2         1.8060    -0.9500     1.9090 hc         1 GN5       0.007589
     27 HAC3         1.5610     0.8000     1.9950 hc         1 GN5       0.007589
     28 HAD1         3.1230    -1.2510    -0.7180 hc         1 GN5       0.007589
     29 HAD2         1.6760    -2.1340    -0.2110 hc         1 GN5       0.007589
     30 HAD3         1.6810    -1.2490    -1.7430 hc         1 GN5       0.007589
     31 HAJ          1.0750     2.5850     0.6420 ha         1 GN5       0.117000
     32 HAF          3.0970     0.1180    -2.1980 ha         1 GN5       0.117000
     33 HAI          1.8970     4.5980    -0.5210 ha         1 GN5       0.116000
     34 HAG          3.9190     2.1320    -3.3610 ha         1 GN5       0.116000
     35 HAK          4.4080     5.0180    -2.3010 h2         1 GN5       0.045700
     36 HAL          2.5840     6.4280    -1.7790 hn         1 GN5       0.193500
     37 HAQ          4.2870     5.0650    -4.5490 hn         1 GN5       0.270800
     38 HAU         -0.6350     5.6020    -5.1530 ha         1 GN5       0.129000
     39 HAT         -0.6080     4.0870    -7.1280 ha         1 GN5       0.118000
     40 HAS          1.4160     2.7860    -7.6320 h4         1 GN5      -0.020900
@<TRIPOS>BOND
     1     1     2 1   
     2     1    22 1   
     3     1    23 1   
     4     1    24 1   
     5     2     3 1   
     6     2     4 1   
     7     2     5 1   
     8     3    25 1   
     9     3    26 1   
    10     3    27 1   
    11     4    28 1   
    12     4    29 1   
    13     4    30 1   
    14     5     6 ar  
    15     5     8 ar  
    16     6     7 ar  
    17     6    31 1   
    18     7    10 ar  
    19     7    33 1   
    20     8     9 ar  
    21     8    32 1   
    22     9    10 ar  
    23     9    34 1   
    24    10    11 1   
    25    11    12 1   
    26    11    21 1   
    27    11    35 1   
    28    12    13 1   
    29    12    36 1   
    30    13    14 2   
    31    13    15 1   
    32    15    16 ar  
    33    15    20 ar  
    34    16    17 ar  
    35    16    38 1   
    36    17    18 ar  
    37    17    39 1   
    38    18    19 ar  
    39    18    40 1   
    40    19    20 ar  
    41    20    21 1   
    42    21    37 1   
@<TRIPOS>SUBSTRUCTURE
     1 GN5         1 TEMP              0 ****  ****    0 ROOT
