@<TRIPOS>MOLECULE
GN8
   37    39     1     0     0
SMALL
bcc


@<TRIPOS>ATOM
      1 OAA          0.0000     0.0000     0.0000 o          1 GN8      -0.581500
      2 CAU          1.2240     0.0000     0.0000 c          1 GN8       0.647700
      3 CAW          2.0350     0.0000     1.2400 cc         1 GN8      -0.141600
      4 CAF          1.5050    -0.0000     2.4640 cf         1 GN8       0.089800
      5 CAR          2.2610     0.0000     3.6830 ca         1 GN8      -0.169800
      6 CAQ          2.6250     1.1940     4.3320 ca         1 GN8       0.258100
      7 OAC          2.2480     2.3900     3.7940 oh         1 GN8      -0.470100
      8 CAT          3.3630     1.1650     5.5160 ca         1 GN8      -0.489200
      9 NAY          3.7320     2.3710     6.1750 no         1 GN8       1.025200
     10 OAD          3.3820     3.4660     5.6750 o          1 GN8      -0.443500
     11 OAB          4.3950     2.3020     7.2360 o          1 GN8      -0.443500
     12 CAN          3.7500    -0.0560     6.0680 ca         1 GN8       0.029000
     13 CAJ          3.3980    -1.2490     5.4370 ca         1 GN8      -0.139000
     14 CAK          2.6600    -1.2210     4.2530 ca         1 GN8       0.011000
     15 SAP          3.7130     0.0030     0.8830 ss         1 GN8      -0.133200
     16 CAV          3.4420     0.0040    -0.8580 cs         1 GN8       0.340000
     17 SAE          4.6980     0.0100    -1.9590 s          1 GN8      -0.432400
     18 NAX          2.0740     0.0000    -1.1070 n          1 GN8      -0.037400
     19 CAO          1.5480    -0.0040    -2.4700 c3         1 GN8       0.078300
     20 CAS          1.3490    -1.3960    -2.9920 ca         1 GN8      -0.143300
     21 CAL          0.1320    -2.0370    -2.7960 ca         1 GN8      -0.082500
     22 CAM          2.3860    -2.0320    -3.6650 ca         1 GN8      -0.082500
     23 CAI          2.2020    -3.3270    -4.1500 ca         1 GN8      -0.104000
     24 CAG          0.9830    -3.9770    -3.9580 ca         1 GN8      -0.087000
     25 CAH         -0.0520    -3.3320    -3.2810 ca         1 GN8      -0.104000
     26 HAC          1.3680     2.5940     4.0650 ho         1 GN8       0.423000
     27 HAK          2.3900    -2.1510     3.7690 ha         1 GN8       0.114000
     28 HAJ          3.6990    -2.1970     5.8650 ha         1 GN8       0.124000
     29 HAN          4.3240    -0.0770     6.9870 ha         1 GN8       0.141000
     30 HAF          0.4250    -0.0000     2.5520 ha         1 GN8       0.124000
     31 HAO1         0.5980     0.5160    -2.4820 h1         1 GN8       0.055700
     32 HAO2         2.2430     0.5190    -3.1160 h1         1 GN8       0.055700
     33 HAM          3.3320    -1.5250    -3.8130 ha         1 GN8       0.125500
     34 HAI          3.0060    -3.8280    -4.6760 ha         1 GN8       0.107000
     35 HAG          0.8390    -4.9830    -4.3350 ha         1 GN8       0.104000
     36 HAH         -0.9990    -3.8370    -3.1320 ha         1 GN8       0.107000
     37 HAL         -0.6700    -1.5330    -2.2700 ha         1 GN8       0.125500
@<TRIPOS>BOND
     1     1     2 2   
     2     2     3 1   
     3     2    18 1   
     4     3     4 2   
     5     3    15 1   
     6     4     5 1   
     7     4    30 1   
     8     5     6 ar  
     9     5    14 ar  
    10     6     7 1   
    11     6     8 ar  
    12     7    26 1   
    13     8     9 1   
    14     8    12 ar  
    15     9    10 1   
    16     9    11 1   
    17    12    13 ar  
    18    12    29 1   
    19    13    14 ar  
    20    13    28 1   
    21    14    27 1   
    22    15    16 1   
    23    16    17 2   
    24    16    18 1   
    25    18    19 1   
    26    19    20 1   
    27    19    31 1   
    28    19    32 1   
    29    20    21 ar  
    30    20    22 ar  
    31    21    25 ar  
    32    21    37 1   
    33    22    23 ar  
    34    22    33 1   
    35    23    24 ar  
    36    23    34 1   
    37    24    25 ar  
    38    24    35 1   
    39    25    36 1   
@<TRIPOS>SUBSTRUCTURE
     1 GN8         1 TEMP              0 ****  ****    0 ROOT
