@<TRIPOS>MOLECULE
molecule
   45    45     1     0     0
SMALL
bcc


@<TRIPOS>ATOM
      1 C1           0.0000     0.0000     0.0000 c          1 GNA       0.841600
      2 C2           1.5060     0.0000     0.0000 c3         1 GNA       0.005100
      3 C3           2.0150     0.0000     1.4420 c3         1 GNA      -0.190400
      4 C4           1.4730    -1.2400     2.1630 c3         1 GNA       0.259500
      5 C5           1.8360    -2.4820     1.3420 c3         1 GNA       0.036700
      6 C6           1.3430    -2.2950    -0.0940 c3         1 GNA       0.108100
      7 C7           1.6740    -3.5440    -0.9140 c3         1 GNA      -0.088900
      8 C8           1.1730    -3.3600    -2.3470 c3         1 GNA       0.215100
      9 C9           1.5040    -4.6090    -3.1670 c3         1 GNA      -0.078600
     10 C11          1.1870    -5.5920     3.4760 c3         1 GNA      -0.176100
     11 N5           1.1990    -3.6620     1.9290 ns         1 GNA      -0.563900
     12 N4           2.0710    -1.3380     3.4960 nu         1 GNA      -0.832200
     13 C12          1.4540    -0.7480     4.5720 c2         1 GNA       0.672100
     14 N6           0.3350    -0.1000     4.4070 n2         1 GNA      -0.764100
     15 N7           2.0140    -0.8410     5.8240 nz         1 GNA      -0.807600
     16 O1A         -0.6710    -0.7470    -0.8920 o          1 GNA      -0.814800
     17 O1B         -0.6050     0.6720     0.8010 o          1 GNA      -0.814800
     18 O6           1.9790    -1.1610    -0.6800 os         1 GNA      -0.356600
     19 O7           3.0890    -3.7430    -0.9260 oh         1 GNA      -0.530800
     20 O8          -0.2410    -3.1610    -2.3350 oh         1 GNA      -0.579800
     21 O9           1.0360    -4.4370    -4.5070 oh         1 GNA      -0.596800
     22 O10          2.9510    -4.0440     3.2340 o          1 GNA      -0.664100
     23 H2           1.8700     0.8850    -0.5080 h1         1 GNA       0.083700
     24 H31          2.9120     0.5830     1.2750 hc         1 GNA       0.075700
     25 H32          1.4000     0.7500     1.9260 hc         1 GNA       0.075700
     26 H4           0.3950    -1.1660     2.2480 h1         1 GNA       0.128700
     27 H5           2.9060    -2.3730     1.4740 h1         1 GNA       0.093700
     28 H6           0.3020    -2.1730     0.1810 h1         1 GNA       0.134700
     29 H7           0.7390    -3.3460    -0.4050 h1         1 GNA       0.250700
     30 H8           1.7770    -2.4840    -2.5470 h1         1 GNA       0.067700
     31 H91          2.0340    -3.6900    -3.3850 h1         1 GNA       0.085200
     32 H92          2.3010    -5.2990    -2.9170 h1         1 GNA       0.085200
     33 H111         1.7870    -5.9540     4.3020 hc         1 GNA       0.063033
     34 H112         1.1020    -6.3670     2.7240 hc         1 GNA       0.063033
     35 H113         0.1990    -5.3280     3.8350 hc         1 GNA       0.063033
     36 HN5          0.2910    -3.9460     1.6200 hn         1 GNA       0.335500
     37 HN4          2.9770    -1.7490     3.6050 hn         1 GNA       0.461800
     38 HN6         -0.1150     0.3300     5.1910 hn         1 GNA       0.419400
     39 HN71         2.9610    -1.1570     5.7440 hn         1 GNA       0.456133
     40 HN72         1.9980     0.0570     6.2640 hn         1 GNA       0.456133
     41 HO7          3.2810    -4.6440    -0.7260 ho         1 GNA       0.386000
     42 HO8         -0.5400    -2.9760    -3.2100 ho         1 GNA       0.427000
     43 HO9          1.1280    -5.2480    -4.9780 ho         1 GNA       0.390000
     44 C10          1.8440    -4.3780     2.8720 c          1 GNA       0.662100
     45 H73          1.4920    -1.4920     6.3760 hn         1 GNA       0.456133
@<TRIPOS>BOND
     1     1     2 1
     2     1    16 1
     3     1    17 1
     4     2     3 1
     5     2    18 1
     6     2    23 1
     7     3     4 1
     8     3    24 1
     9     3    25 1
    10     4     5 1
    11     4    12 1
    12     4    26 1
    13     5     6 1
    14     5    11 1
    15     5    27 1
    16     6     7 1
    17     6    18 1
    18     6    28 1
    19     7     8 1
    20     7    19 1
    21     7    29 1
    22     8     9 1
    23     8    20 1
    24     8    30 1
    25     9    21 1
    26     9    31 1
    27     9    32 1
    28    44    10 1
    29    44    11 1
    30    44    22 2
    31    10    33 1
    32    10    34 1
    33    10    35 1
    34    11    36 1
    35    12    13 1
    36    12    37 1
    37    13    14 2
    38    13    15 1
    39    14    38 1
    40    15    39 1
    41    15    40 1
    42    19    41 1
    43    20    42 1
    44    21    43 1
    45    45    15 1
@<TRIPOS>SUBSTRUCTURE
     1 GNA         1 TEMP              0 ****  ****    0 ROOT
