@<TRIPOS>MOLECULE
GNA
   45    46     1     0     0
SMALL
bcc


@<TRIPOS>ATOM
      1 C1           0.0000     0.0000     0.0000 c2         1 GNA       0.354000
      2 C2           1.5060     0.0000     0.0000 c3         1 GNA      -0.019000
      3 C3           2.0150     0.0000     1.4420 c3         1 GNA      -0.191000
      4 C4           1.4730    -1.2400     2.1630 c3         1 GNA      -0.063000
      5 C5           1.8360    -2.4820     1.3420 c3         1 GNA      -0.126000
      6 C6           1.3430    -2.2950    -0.0940 DU         1 GNA      -0.007000
      7 C7           1.6740    -3.5440    -0.9140 c3         1 GNA      -0.223000
      8 C8           1.1730    -3.3600    -2.3470 c3         1 GNA       0.155000
      9 C9           1.5040    -4.6090    -3.1670 c3         1 GNA      -0.189000
     10 C11          1.1870    -5.5920     3.4760 c3         1 GNA      -0.138000
     11 N5           1.1990    -3.6620     1.9290 ns         1 GNA       0.032000
     12 N4           2.0710    -1.3380     3.4960 n7         1 GNA       0.031000
     13 C12          1.4540    -0.7480     4.5720 c2         1 GNA      -0.364000
     14 N6           0.3350    -0.1000     4.4070 n2         1 GNA      -0.126000
     15 N7           2.0140    -0.8410     5.8240 nz         1 GNA       0.967000
     16 O1A         -0.6710    -0.7470    -0.8920 o          1 GNA      -0.597500
     17 O1B         -0.6050     0.6720     0.8010 o          1 GNA      -0.597500
     18 O6           1.9790    -1.1610    -0.6800 os         1 GNA      -0.196000
     19 O7           3.0890    -3.7430    -0.9260 oh         1 GNA      -0.232000
     20 O8          -0.2410    -3.1610    -2.3350 oh         1 GNA      -0.291000
     21 O9           1.0360    -4.4370    -4.5070 oh         1 GNA      -0.294000
     22 O10          2.9480    -4.0410     3.2390 o          1 GNA      -0.461000
     23 H2           1.8700     0.8850    -0.5080 h1         1 GNA       0.087000
     24 H31          2.1200     1.0760     1.5070 hc         1 GNA       0.077500
     25 H32          3.0550    -0.2900     1.3540 hc         1 GNA       0.077500
     26 H4           0.3950    -1.1660     2.2480 h1         1 GNA       0.112000
     27 H5           2.9060    -2.3720     1.4740 h1         1 GNA       0.117000
     28 H6           0.3020    -2.1740     0.1810 ha         1 GNA       0.158000
     29 H7           0.7390    -3.3460    -0.4050 DU         1 GNA       0.266000
     30 H8           1.7770    -2.4840    -2.5470 h1         1 GNA       0.077000
     31 H91          2.0340    -3.6900    -3.3850 h1         1 GNA       0.094000
     32 H92          2.3010    -5.2990    -2.9170 h1         1 GNA       0.094000
     33 H111         1.7850    -5.9510     4.3050 hc         1 GNA       0.065333
     34 H112         1.1080    -6.3680     2.7240 hc         1 GNA       0.065333
     35 H113         0.1970    -5.3310     3.8310 hc         1 GNA       0.065333
     36 HN5          0.2910    -3.9460     1.6200 hn         1 GNA       0.108000
     37 HN4          2.9670    -1.7700     3.6100 hn         1 GNA       0.118000
     38 HN6         -0.0760    -0.0310     3.4970 hn         1 GNA       0.182000
     39 HN71         1.8700    -1.7630     6.1860 hn         1 GNA       0.008000
     40 HN72         2.9960    -0.6560     5.7650 hn         1 GNA       0.008000
     41 HO7          3.2770    -4.6650    -0.8670 ho         1 GNA       0.175000
     42 HO8         -0.5530    -3.0690    -3.2200 ho         1 GNA       0.210000
     43 HO9          1.2020    -5.2230    -5.0010 ho         1 GNA       0.182000
     44 C10          1.8440    -4.3780     2.8720 c2         1 GNA       0.219000
     45 H73          1.5840    -0.1730     6.4320 hn         1 GNA       0.008000
@<TRIPOS>BOND
     1     1     2 1   
     2     1    16 1   
     3     1    17 1   
     4     2     3 1   
     5     2    18 1   
     6     2    23 1   
     7     3     4 1   
     8     3    24 1   
     9     3    25 1   
    10     4     5 1   
    11     4    12 1   
    12     4    26 1   
    13     5     6 1   
    14     5    11 1   
    15     5    27 1   
    16     6     7 1   
    17     6    18 1   
    18     6    28 1   
    19     6    29 1   
    20     7     8 1   
    21     7    19 1   
    22     7    29 1   
    23     8     9 1   
    24     8    20 1   
    25     8    30 1   
    26     9    21 1   
    27     9    31 1   
    28     9    32 1   
    29    10    33 1   
    30    10    34 1   
    31    10    35 1   
    32    10    44 1   
    33    11    36 1   
    34    11    44 1   
    35    12    13 1   
    36    12    37 1   
    37    13    14 1   
    38    13    15 1   
    39    14    38 1   
    40    15    39 1   
    41    15    40 1   
    42    15    45 1   
    43    19    41 1   
    44    20    42 1   
    45    21    43 1   
    46    22    44 1   
@<TRIPOS>SUBSTRUCTURE
     1 GNA         1 TEMP              0 ****  ****    0 ROOT
