@<TRIPOS>MOLECULE
GNB
   58    58     1     0     0
SMALL
bcc


@<TRIPOS>ATOM
      1 C           0.8950   -1.2670    1.6440 c2        1 GNB      0.361000
      2 OT1         0.1970   -0.2660    1.4050 o         1 GNB     -0.489000
      3 OT2         1.0410   -1.8990    2.7240 o         1 GNB     -0.489000
      4 N           1.1000   -1.4290   -0.8610 n4        1 GNB     -0.046000
      5 CA          1.7420   -1.8430    0.4200 c3        1 GNB     -0.217000
      6 CB          3.1910   -1.3750    0.5210 c3        1 GNB     -0.167000
      7 CB2         1.9810   -6.0720    3.7110 c3        1 GNB     -0.304000
      8 SG2         2.3650   -5.4560    5.3130 ss        1 GNB      0.037000
      9 CG          3.8230   -1.7620    1.8460 c3        1 GNB     -0.180000
     10 CD          3.9440   -3.2580    1.9720 c2        1 GNB      0.270000
     11 OE          4.7710   -3.9620    1.4010 o         1 GNB     -0.228000
     12 N2          2.9480   -3.9280    2.8620 n4        1 GNB     -0.137000
     13 CA2         2.7900   -5.3930    2.6040 c3        1 GNB     -0.078000
     14 C2          2.0750   -5.5920    1.2520 c2        1 GNB      0.278000
     15 O2          0.8370   -5.4810    1.1640 o         1 GNB     -0.345000
     16 N3          2.8520   -5.8370    0.1450 n         1 GNB     -0.365000
     17 CA3         2.2610   -5.9180   -1.1620 c3        1 GNB     -0.053000
     18 C3          1.6740   -4.5780   -1.5820 c2        1 GNB      0.290000
     19 O31         0.3950   -4.2570   -1.2540 oh        1 GNB     -0.325000
     20 O32         2.2650   -3.6610   -2.1590 o         1 GNB     -0.343000
     21 CD2         4.1010   -6.0390    5.5470 c3        1 GNB      0.097000
     22 OZ1         4.8940   -5.3290    4.6260 oh        1 GNB     -0.393000
     23 CG2         4.9400   -6.0830    9.0570 c2        1 GNB     -0.997000
     24 CL1         4.0700   -5.1310   10.1330 cl        1 GNB      0.855500
     25 CL2         6.4890   -6.4220    9.6080 cl        1 GNB      0.855500
     26 CM1         4.3920   -5.5730   11.8330 c2        1 GNB     -0.175500
     27 CM2         6.5190   -6.7160   11.3690 c2        1 GNB     -0.175500
     28 CZ          5.4940   -6.3270   12.2200 c2        1 GNB     -0.219000
     29 OH1         4.5980   -5.6750    6.7820 os        1 GNB     -0.309000
     30 CH          4.3740   -6.6460    7.8640 c3        1 GNB      0.148000
     31 N7          5.6200   -6.6850   13.6830 no        1 GNB      0.547000
     32 O8          6.5780   -7.3140   14.0360 o         1 GNB     -0.344500
     33 O9          4.7560   -6.3310   14.4340 o         1 GNB     -0.344500
     34 H11N        0.7100   -0.4800   -0.7260 hn        1 GNB      0.261667
     35 H12N        1.7660   -1.4530   -1.6360 hn        1 GNB      0.261667
     36 HA1         1.6980   -2.9700    0.4520 hx        1 GNB      0.102000
     37 HB1         3.7980   -1.7990   -0.3240 hc        1 GNB      0.123000
     38 HB2         3.2310   -0.2520    0.4500 hc        1 GNB      0.123000
     39 HB21        0.8810   -5.8810    3.5710 h1        1 GNB      0.162000
     40 HB22        2.1500   -7.1750    3.6310 h1        1 GNB      0.162000
     41 HG1         3.2300   -1.3170    2.6970 hc        1 GNB      0.167500
     42 HG2         4.8690   -1.3430    1.8890 hc        1 GNB      0.167500
     43 HN21        3.2440   -3.8330    3.8650 hn        1 GNB      0.311500
     44 HA2         3.8340   -5.8410    2.5910 hx        1 GNB      0.176000
     45 HN3         3.8450   -5.8730    0.2200 hn        1 GNB      0.269000
     46 HA31        3.0520   -6.2130   -1.9110 h1        1 GNB      0.149000
     47 HA32        1.4390   -6.6930   -1.1680 h1        1 GNB      0.149000
     48 HD2         4.1320   -7.1370    5.3270 h3        1 GNB      0.106000
     49 HOZ1        5.6990   -5.0200    5.0750 ho        1 GNB      0.255000
     50 HL1         3.3550   -4.2480    9.4600 ha        1 GNB     -0.167000
     51 HL2         7.3380   -6.3680    8.5960 ha        1 GNB     -0.167000
     52 HM1         3.6780   -5.2170   12.5990 h4        1 GNB      0.177500
     53 HM2         7.4100   -7.2250   11.7850 h4        1 GNB      0.177500
     54 HC1         3.2630   -6.7990    7.9340 h1        1 GNB      0.078000
     55 HC2         4.8740   -7.6010    7.5490 h1        1 GNB      0.078000
     56 HN31        0.3310   -2.0770   -1.0690 hn        1 GNB      0.261667
     57 H22         2.0150   -3.4310    2.7680 hn        1 GNB      0.311500
     58 H32        -0.0360   -4.9700   -0.7480 ho        1 GNB      0.284000
@<TRIPOS>BOND
     1    1    2 1
     2    1    3 1
     3    1    5 1
     4    4    5 1
     5    4   34 1
     6    4   35 1
     7    4   56 1
     8    5    6 1
     9    5   36 1
    10    6    9 1
    11    6   37 1
    12    6   38 1
    13    7    8 1
    14    7   13 1
    15    7   39 1
    16    7   40 1
    17    8   21 1
    18    9   10 1
    19    9   41 1
    20    9   42 1
    21   10   11 1
    22   10   12 1
    23   12   13 1
    24   12   43 1
    25   12   57 1
    26   13   14 1
    27   13   44 1
    28   14   15 1
    29   14   16 1
    30   16   17 1
    31   16   45 1
    32   17   18 1
    33   17   46 1
    34   17   47 1
    35   18   19 1
    36   18   20 1
    37   19   58 1
    38   21   22 1
    39   21   29 1
    40   21   48 1
    41   22   49 1
    42   23   24 1
    43   23   25 1
    44   23   30 1
    45   24   26 1
    46   24   50 1
    47   25   27 1
    48   25   51 1
    49   26   28 1
    50   26   52 1
    51   27   28 1
    52   27   53 1
    53   28   31 1
    54   29   30 1
    55   30   54 1
    56   30   55 1
    57   31   32 1
    58   31   33 1
@<TRIPOS>SUBSTRUCTURE
     1 GNB         1 TEMP              0 ****  ****    0 ROOT
