@<TRIPOS>MOLECULE
GNF
   65    68     1     0     0
SMALL
bcc


@<TRIPOS>ATOM
      1 O11         3.2730   -2.3830   -1.2220 o         1 GNF     -0.414100
      2 C10         2.9430   -1.4940   -0.4530 c         1 GNF      0.532100
      3 C12         3.1730   -1.4720    1.0710 c3        1 GNF      0.154500
      4 N20         1.9710   -1.0380    1.7560 nh        1 GNF     -0.784200
      5 C21         1.9490    0.2880    2.2080 cc        1 GNF      0.680500
      6 O29         1.3130    0.5020    3.4670 os        1 GNF     -0.297700
      7 C28         1.3460    1.8940    3.6190 ca        1 GNF      0.036100
      8 C27         0.8530    2.6520    4.6700 ca        1 GNF     -0.095000
      9 C26         1.0330    4.0320    4.5610 ca        1 GNF     -0.096000
     10 C25         1.6720    4.6080    3.4540 ca        1 GNF     -0.124000
     11 C24         2.1630    3.8440    2.3970 ca        1 GNF     -0.076000
     12 C23         1.9990    2.4580    2.4700 ca        1 GNF      0.061400
     13 N22         2.3620    1.4100    1.5940 nd        1 GNF     -0.644100
     14 C13         3.6450   -2.8770    1.4880 c3        1 GNF     -0.099400
     15 C14         4.2270   -2.8970    2.8940 c3        1 GNF     -0.070700
     16 C19         4.2950   -4.3400    3.3860 c3        1 GNF     -0.074900
     17 C18         4.8870   -4.4130    4.7780 c3        1 GNF     -0.077900
     18 C17         6.2540   -3.7630    4.8330 c3        1 GNF     -0.081400
     19 C16         6.2030   -2.3360    4.3270 c3        1 GNF     -0.077900
     20 C15         5.6130   -2.2670    2.9330 c3        1 GNF     -0.074900
     21 N9          2.2990   -0.2900   -1.0850 n4        1 GNF     -0.656800
     22 C8          3.3210    0.7200   -1.4940 c3        1 GNF      0.106800
     23 C7          2.6900    2.0280   -2.0240 c3        1 GNF      0.155800
     24 N           1.5940    1.7890   -2.9280 nh        1 GNF     -0.749600
     25 C5          1.8670    1.7050   -4.3210 ca        1 GNF      0.043600
     26 C4          0.7940    1.8750   -5.2310 ca        1 GNF     -0.132500
     27 C3          0.9870    1.7150   -6.5920 ca        1 GNF     -0.149500
     28 C30         3.1370    1.3890   -4.8320 ca        1 GNF     -0.132500
     29 C31         3.3380    1.2270   -6.2020 ca        1 GNF     -0.149500
     30 C2          2.2670    1.3860   -7.0840 ca        1 GNF      0.126100
     31 O           2.3430    1.2460   -8.4510 os        1 GNF     -0.314900
     32 C           3.6310    0.9610   -8.9890 c3        1 GNF      0.109700
     33 H12         4.0340   -0.7460    1.2270 h1        1 GNF      0.114700
     34 HN20        1.6250   -1.6890    2.4390 hn        1 GNF      0.460800
     35 H27         0.3550    2.1920    5.5350 ha        1 GNF      0.169000
     36 H26         0.6640    4.6840    5.3690 ha        1 GNF      0.158000
     37 H25         1.7910    5.7040    3.4200 ha        1 GNF      0.155000
     38 H24         2.6650    4.3140    1.5400 ha        1 GNF      0.151000
     39 H131        4.4290   -3.2160    0.7570 hc        1 GNF      0.082200
     40 H132        2.7900   -3.6010    1.4170 hc        1 GNF      0.082200
     41 H14         3.5560   -2.3240    3.5940 hc        1 GNF      0.049700
     42 H191        3.2650   -4.7840    3.3930 hc        1 GNF      0.042450
     43 H192        4.9210   -4.9440    2.6770 hc        1 GNF      0.042450
     44 H181        4.9690   -5.4870    5.0880 hc        1 GNF      0.050700
     45 H182        4.2000   -3.9050    5.5050 hc        1 GNF      0.050700
     46 H171        6.9760   -4.3560    4.2120 hc        1 GNF      0.052700
     47 H172        6.6310   -3.7720    5.8890 hc        1 GNF      0.052700
     48 H161        5.5870   -1.7120    5.0260 hc        1 GNF      0.050700
     49 H162        7.2380   -1.9050    4.3120 hc        1 GNF      0.050700
     50 H151        6.2870   -2.8040    2.2150 hc        1 GNF      0.042450
     51 H152        5.5560   -1.1950    2.6090 hc        1 GNF      0.042450
     52 HN9         1.6230    0.1490   -0.4500 hn        1 GNF      0.474800
     53 H81         3.9630    0.2400   -2.2870 hx        1 GNF      0.105700
     54 H82         3.9540    0.9730   -0.5970 hx        1 GNF      0.105700
     55 H71         2.3160    2.6180   -1.1370 h1        1 GNF      0.082200
     56 H72         3.5390    2.6100   -2.4900 h1        1 GNF      0.082200
     57 HN          0.8310    2.4170   -2.7520 hn        1 GNF      0.406800
     58 H4         -0.2110    2.1380   -4.8640 ha        1 GNF      0.130000
     59 H3          0.1540    1.8440   -7.3010 ha        1 GNF      0.157000
     60 H30         4.0050    1.2670   -4.1660 ha        1 GNF      0.130000
     61 H31         4.3440    0.9800   -6.5720 ha        1 GNF      0.157000
     62 H1          4.0060   -0.0210   -8.6110 h1        1 GNF      0.052033
     63 H2          3.4430    0.9150  -10.0920 h1        1 GNF      0.052033
     64 H3A         4.3510    1.7790   -8.7440 h1        1 GNF      0.052033
     65 H92         1.7860   -0.5880   -1.9310 hn        1 GNF      0.474800
@<TRIPOS>BOND
     1    1    2 2   
     2    2    3 1   
     3    2   21 1   
     4    3    4 1   
     5    3   14 1   
     6    3   33 1   
     7    4    5 1   
     8    4   34 1   
     9    5    6 1   
    10    5   13 2   
    11    6    7 1   
    12    7    8 ar  
    13    7   12 ar  
    14    8    9 ar  
    15    8   35 1   
    16    9   10 ar  
    17    9   36 1   
    18   10   11 ar  
    19   10   37 1   
    20   11   12 ar  
    21   11   38 1   
    22   12   13 1   
    23   14   15 1   
    24   14   39 1   
    25   14   40 1   
    26   15   16 1   
    27   15   20 1   
    28   15   41 1   
    29   16   17 1   
    30   16   42 1   
    31   16   43 1   
    32   17   18 1   
    33   17   44 1   
    34   17   45 1   
    35   18   19 1   
    36   18   46 1   
    37   18   47 1   
    38   19   20 1   
    39   19   48 1   
    40   19   49 1   
    41   20   50 1   
    42   20   51 1   
    43   21   22 1   
    44   21   52 1   
    45   21   65 1   
    46   22   23 1   
    47   22   53 1   
    48   22   54 1   
    49   23   24 1   
    50   23   55 1   
    51   23   56 1   
    52   24   25 1   
    53   24   57 1   
    54   25   26 ar  
    55   25   28 ar  
    56   26   27 ar  
    57   26   58 1   
    58   27   30 ar  
    59   27   59 1   
    60   28   29 ar  
    61   28   60 1   
    62   29   30 ar  
    63   29   61 1   
    64   30   31 1   
    65   31   32 1   
    66   32   62 1   
    67   32   63 1   
    68   32   64 1   
@<TRIPOS>SUBSTRUCTURE
     1 GNF         1 TEMP              0 ****  ****    0 ROOT
