@<TRIPOS>MOLECULE
molecule
   33    35     1     0     0
SMALL
bcc


@<TRIPOS>ATOM
      1 O5'          0.0000     0.0000     0.0000 oh         1 GNG      -0.597800
      2 C5'          1.4290     0.0000     0.0000 c3         1 GNG       0.151400
      3 C4'          1.9380     0.0000     1.4420 c3         1 GNG       0.138100
      4 O4'          1.5860    -1.2320     2.1120 os         1 GNG      -0.381600
      5 C1'          2.4920    -1.3800     3.2170 c3         1 GNG       0.239800
      6 N9           2.7890    -2.7990     3.4310 na         1 GNG      -0.184900
      7 C8           2.7780    -3.7760     2.4810 cc         1 GNG       0.483400
      8 N7           3.0880    -4.9170     3.0260 nd         1 GNG      -0.606000
      9 C5           3.3130    -4.7310     4.3470 cd         1 GNG       0.272800
     10 C4           3.1250    -3.3810     4.6140 cc         1 GNG      -0.025000
     11 N3           3.2890    -2.9300     5.8980 na         1 GNG      -0.667600
     12 C2           3.6430    -3.7890     6.8910 cc         1 GNG       0.686100
     13 N1           3.8330    -5.0730     6.6800 nd         1 GNG      -0.645100
     14 C6           3.6890    -5.6090     5.4590 c          1 GNG       0.626000
     15 O6           3.8670    -6.8040     5.2780 o          1 GNG      -0.426100
     16 N2           3.8030    -3.2980     8.1590 nz         1 GNG      -0.744600
     17 C2'          3.7840    -0.6230     2.8600 c3         1 GNG      -0.167400
     18 C3'          3.4870     0.0010     1.4740 c3         1 GNG       0.120100
     19 O3'          4.0000     1.3320     1.3940 oh         1 GNG      -0.582800
     20 H5'         -0.3140     0.1100    -0.8820 ho         1 GNG       0.419000
     21 H5'1         1.7900     0.8850    -0.5100 h1         1 GNG       0.042700
     22 H5'2         1.7900    -0.8840    -0.5110 h1         1 GNG       0.042700
     23 H4'          1.5490     0.8510     1.9890 h1         1 GNG       0.091700
     24 H1'          2.0520    -0.9530     4.1100 h2         1 GNG       0.066700
     25 H8           2.5450    -3.6270     1.4340 h5         1 GNG       0.108100
     26 HN3          3.1560    -1.9600     6.1050 hn         1 GNG       0.447800
     27 HN21         4.0680    -4.0430     8.7740 hn         1 GNG       0.484467
     28 HN22         2.9420    -2.8970     8.4730 hn         1 GNG       0.484467
     29 H2'1         4.6180    -1.3110     2.7940 hc         1 GNG       0.077200
     30 H2'2         3.9800     0.1530     3.5890 hc         1 GNG       0.077200
     31 H3'          3.8860    -0.6210     0.6820 h1         1 GNG       0.062700
     32 H1           4.8390     1.3200     0.9630 ho         1 GNG       0.422000
     33 H23          4.5250    -2.6040     8.1600 hn         1 GNG       0.484467
@<TRIPOS>BOND
     1     1     2 1
     2     1    20 1
     3     2     3 1
     4     2    21 1
     5     2    22 1
     6     3     4 1
     7     3    18 1
     8     3    23 1
     9     4     5 1
    10     5     6 1
    11     5    17 1
    12     5    24 1
    13     6     7 1
    14     6    10 1
    15     7     8 2
    16     7    25 1
    17     8     9 1
    18     9    10 2
    19     9    14 1
    20    10    11 1
    21    11    12 1
    22    11    26 1
    23    12    13 2
    24    12    16 1
    25    13    14 1
    26    14    15 2
    27    16    27 1
    28    16    28 1
    29    17    18 1
    30    17    29 1
    31    17    30 1
    32    18    19 1
    33    18    31 1
    34    19    32 1
    35    33    16 1
@<TRIPOS>SUBSTRUCTURE
     1 GNG         1 TEMP              0 ****  ****    0 ROOT
