@<TRIPOS>MOLECULE
GNH
   43    45     1     0     0
SMALL
bcc


@<TRIPOS>ATOM
      1 N3B         1.8370   -1.4160   -0.2770 n4        1 GNH     -0.815700
      2 PB          2.7530   -0.4080    1.0300 p5        1 GNH      1.474700
      3 O1B         2.9480   -1.4420    2.0510 o         1 GNH     -0.800500
      4 O2B         1.8590    0.7510    1.1230 o         1 GNH     -0.800500
      5 O3A         4.0530   -0.1510    0.1360 os        1 GNH     -0.797800
      6 PA          5.2440   -0.0710   -1.0110 p5        1 GNH      1.594800
      7 O1A         6.3930   -0.9040   -0.6140 o         1 GNH     -0.844000
      8 O2A         5.2900    1.2570   -1.6150 o         1 GNH     -0.844000
      9 O5'         4.3840   -1.1040   -2.0240 os        1 GNH     -0.613200
     10 C5'         5.1220   -1.7510   -3.0060 c3        1 GNH      0.197400
     11 C4'         5.5150   -3.1730   -2.5630 c3        1 GNH      0.064100
     12 O4'         5.3030   -4.0850   -3.6570 os        1 GNH     -0.421600
     13 C3'         6.9810   -3.2950   -2.0960 c3        1 GNH      0.118100
     14 O3'         7.0410   -3.6740   -0.7410 oh        1 GNH     -0.636800
     15 C2'         7.5970   -4.4250   -2.9480 c3        1 GNH      0.112100
     16 O2'         7.8800   -5.6120   -2.2470 oh        1 GNH     -0.590800
     17 C1'         6.5150   -4.7330   -4.0390 c3        1 GNH      0.213800
     18 N9          6.8920   -4.3110   -5.3760 na        1 GNH     -0.201900
     19 C8          6.7470   -3.0320   -5.9610 cc        1 GNH      0.419400
     20 N7          7.1710   -2.9780   -7.2390 nd        1 GNH     -0.604000
     21 C5          7.6130   -4.2710   -7.5230 cd        1 GNH      0.182800
     22 C6          8.1750   -4.8290   -8.7350 c         1 GNH      0.649000
     23 O6          8.3970   -4.2660   -9.8190 o         1 GNH     -0.617500
     24 N1          8.5160   -6.2050   -8.6340 n         1 GNH     -0.506400
     25 C2          8.2810   -6.9630   -7.4690 cd        1 GNH      0.646800
     26 N2          8.5530   -8.3620   -7.5500 nh        1 GNH     -0.877800
     27 N3          7.7760   -6.4670   -6.3210 nc        1 GNH     -0.645100
     28 C4          7.4370   -5.1250   -6.3730 cc        1 GNH      0.096800
     29 HN31        1.6070   -2.3200    0.1060 hn        1 GNH      0.425800
     30 HN32        0.9940   -0.9280   -0.5370 hn        1 GNH      0.425800
     31 H5'2        6.0410   -1.1490   -3.2500 h1        1 GNH      0.027700
     32 H5'1        4.4760   -1.8310   -3.9260 h1        1 GNH      0.027700
     33 H4'         4.8200   -3.5210   -1.7490 h1        1 GNH      0.086700
     34 H3'         7.5400   -2.3330   -2.2550 h1        1 GNH      0.092700
     35 HO3'        6.9430   -2.8550   -0.2180 ho        1 GNH      0.488000
     36 H2'         8.5750   -4.1090   -3.3990 h1        1 GNH      0.087700
     37 HO2'        7.3060   -5.6520   -1.4690 ho        1 GNH      0.430000
     38 H1'         6.2890   -5.8410   -4.0730 h2        1 GNH      0.109700
     39 H8          6.3120   -2.2000   -5.3900 h5        1 GNH      0.082100
     40 HN1         8.8470   -6.6540   -9.4600 hn        1 GNH      0.329500
     41 HN21        9.4510   -8.5640   -7.9370 hn        1 GNH      0.403300
     42 HN22        8.4000   -8.8380   -6.6830 hn        1 GNH      0.403300
     43 H3B3        2.4160   -1.5430   -1.1010 hn        1 GNH      0.425800
@<TRIPOS>BOND
     1    1    2 1   
     2    1   29 1   
     3    1   30 1   
     4    1   43 1   
     5    2    3 1   
     6    2    4 1   
     7    2    5 1   
     8    5    6 1   
     9    6    7 1   
    10    6    8 1   
    11    6    9 1   
    12    9   10 1   
    13   10   11 1   
    14   10   31 1   
    15   10   32 1   
    16   11   12 1   
    17   11   13 1   
    18   11   33 1   
    19   12   17 1   
    20   13   14 1   
    21   13   15 1   
    22   13   34 1   
    23   14   35 1   
    24   15   16 1   
    25   15   17 1   
    26   15   36 1   
    27   16   37 1   
    28   17   18 1   
    29   17   38 1   
    30   18   19 1   
    31   18   28 1   
    32   19   20 2   
    33   19   39 1   
    34   20   21 1   
    35   21   22 1   
    36   21   28 2   
    37   22   23 2   
    38   22   24 1   
    39   24   25 1   
    40   24   40 1   
    41   25   26 1   
    42   25   27 2   
    43   26   41 1   
    44   26   42 1   
    45   27   28 1   
@<TRIPOS>SUBSTRUCTURE
     1 GNH         1 TEMP              0 ****  ****    0 ROOT
