@<TRIPOS>MOLECULE
GNI
   55    56     1     0     0
SMALL
bcc


@<TRIPOS>ATOM
      1 O11         0.6210    1.8200    0.8050 o         1 GNI     -0.387000
      2 C10         1.1050    0.6810    0.6180 c2        1 GNI      0.371000
      3 N20         3.1030    0.1560   -2.4600 n2        1 GNI     -0.005000
      4 C21         2.9930    0.6290   -1.1990 c2        1 GNI     -0.004000
      5 C28         1.4590    5.9680    3.7570 c2        1 GNI     -0.155000
      6 C27         1.6240    5.2280    4.8960 c2        1 GNI     -0.019000
      7 C26         2.1890    3.9040    4.8200 c2        1 GNI     -0.131000
      8 C25         2.5350    3.3950    3.6030 c2        1 GNI      0.065000
      9 C24         2.2940    4.1320    2.3390 c3        1 GNI     -0.219000
     10 C23         1.8090    5.4910    2.4600 c1        1 GNI     -0.042000
     11 C13         1.0420   -0.3640   -1.7440 c2        1 GNI     -0.004000
     12 C14        -0.3050   -0.9320   -1.9750 c3        1 GNI      0.045000
     13 C19        -0.8080   -0.5230   -3.3630 c3        1 GNI     -0.076000
     14 C18        -2.2330   -0.8850   -3.5470 c2        1 GNI     -0.496000
     15 C17        -2.7330   -1.6490   -4.4920 c1        1 GNI      0.205000
     16 C16         0.3860   -3.1700   -1.0050 c1        1 GNI      0.207000
     17 C15        -0.3230   -2.4110   -1.8070 c2        1 GNI     -0.493000
     18 N9          1.1130   -0.2290    1.6460 n         1 GNI     -0.365000
     19 C8          1.7210   -1.5210    1.5850 c3        1 GNI     -0.086000
     20 C7          2.6130    1.0720    3.8120 c1        1 GNI     -0.020000
     21 C5          5.8100    2.6570    1.0970 c2        1 GNI     -0.196000
     22 C4          5.9200    3.7250    0.2880 c2        1 GNI     -0.118000
     23 C3          3.9420    2.6670   -0.3100 c1        1 GNI      0.197000
     24 C30         6.2970    1.3010    0.7310 c3        1 GNI     -0.116000
     25 C31         5.2000    0.5060   -0.0370 c3        1 GNI      0.099000
     26 O           4.7260   -0.5330    0.8540 os        1 GNI     -0.249000
     27 C           5.4820   -0.5570    2.0090 c2        1 GNI      0.297000
     28 O3          5.1220   -1.3590    2.8620 o         1 GNI     -0.291000
     29 C2          6.5960    0.4490    1.9670 c3        1 GNI     -0.196000
     30 C9          4.0410    1.3450   -0.4800 c2        1 GNI     -0.352000
     31 O13         1.9780   -0.4300   -2.8050 os        1 GNI     -0.044000
     32 C12         1.6540    0.2980   -0.6950 c2        1 GNI     -0.183000
     33 O21         3.2330    2.1860    3.4550 os        1 GNI     -0.157000
     34 H9          0.8200    0.0990    2.5450 hn        1 GNI      0.254000
     35 H27         1.3470    5.6110    5.8940 ha        1 GNI      0.163000
     36 H23         1.4900    3.5780    1.7350 hc        1 GNI      0.211500
     37 H24         3.2070    4.1030    1.6700 hc        1 GNI      0.211500
     38 H19        -0.6960    0.5900   -3.4740 hc        1 GNI      0.110000
     39 H15        -0.9950   -0.4850   -1.1950 hc        1 GNI      0.129000
     40 H18        -0.1640   -1.0080   -4.1440 hc        1 GNI      0.110000
     41 H17        -1.0760   -2.9250   -2.4500 ha        1 GNI      0.208000
     42 H16        -2.9290   -0.4310   -2.8100 ha        1 GNI      0.195000
     43 H8C1        1.6130   -1.9650    0.5570 h1        1 GNI      0.093667
     44 H8C2        2.8190   -1.4660    1.8360 h1        1 GNI      0.093667
     45 H7C1        1.2140   -2.1980    2.3240 h1        1 GNI      0.093667
     46 H7C2        3.3480    0.2380    3.6400 ha        1 GNI      0.054000
     47 H5          5.3330    2.7460    2.0910 ha        1 GNI      0.151000
     48 H4          5.5310    4.7130    0.5780 ha        1 GNI      0.139000
     49 H3          6.4150    3.6850   -0.6930 ha        1 GNI      0.139000
     50 H31         7.2080    1.3780    0.0800 hc        1 GNI      0.127000
     51 H2C1        6.6180    1.0500    2.9100 hc        1 GNI      0.137000
     52 H2C2        7.5770   -0.0820    1.8690 hc        1 GNI      0.137000
     53 CL29        2.4100    3.0620    6.2750 cl        1 GNI      0.020000
     54 H92         5.6400   -0.0330   -0.9240 h1        1 GNI      0.131000
     55 CL26        0.8190    7.5390    3.8610 cl        1 GNI      0.011000
@<TRIPOS>BOND
     1    1    2 1   
     2    2   18 1   
     3    2   32 1   
     4    3    4 1   
     5    3   31 1   
     6    4   30 1   
     7    4   32 1   
     8    5    6 1   
     9    5   10 1   
    10    5   55 1   
    11    6    7 1   
    12    6   35 1   
    13    7    8 1   
    14    7   53 1   
    15    8    9 1   
    16    8   33 1   
    17    9   10 1   
    18    9   36 1   
    19    9   37 1   
    20   11   12 1   
    21   11   31 1   
    22   11   32 1   
    23   12   13 1   
    24   12   17 1   
    25   12   39 1   
    26   13   14 1   
    27   13   38 1   
    28   13   40 1   
    29   14   15 1   
    30   14   42 1   
    31   16   17 1   
    32   17   41 1   
    33   18   19 1   
    34   18   34 1   
    35   19   43 1   
    36   19   44 1   
    37   19   45 1   
    38   20   33 1   
    39   20   46 1   
    40   21   22 1   
    41   21   24 1   
    42   21   47 1   
    43   22   48 1   
    44   22   49 1   
    45   23   30 1   
    46   24   25 1   
    47   24   29 1   
    48   24   50 1   
    49   25   26 1   
    50   25   30 1   
    51   25   54 1   
    52   26   27 1   
    53   27   28 1   
    54   27   29 1   
    55   29   51 1   
    56   29   52 1   
@<TRIPOS>SUBSTRUCTURE
     1 GNI         1 TEMP              0 ****  ****    0 ROOT
