@<TRIPOS>MOLECULE
GNL
   27    28     1     0     0
SMALL
bcc


@<TRIPOS>ATOM
      1 C1           0.0000     0.0000     0.0000 c3         1 GNL       0.311200
      2 S1           1.8230     0.0000     0.0000 ss         1 GNL      -0.426300
      3 C2          -0.3270    -0.4920     1.4010 c3         1 GNL       0.064500
      4 N2           0.8050    -0.2140     2.2850 n2         1 GNL      -0.536900
      5 C3          -0.6620    -1.9720     1.4850 c3         1 GNL       0.186100
      6 O3          -1.4470    -2.2060     2.6550 oh         1 GNL      -0.569800
      7 C4          -1.4390    -2.4530     0.2640 c3         1 GNL       0.140100
      8 O4          -2.7000    -1.7840     0.2000 oh         1 GNL      -0.560800
      9 C5          -0.6130    -2.1250    -0.9860 c3         1 GNL       0.153100
     10 O5          -0.5200    -0.7080    -1.0850 os         1 GNL      -0.328600
     11 C6          -1.3080    -2.6860    -2.2290 c3         1 GNL       0.228400
     12 O6          -0.4780    -2.4790    -3.3740 oh         1 GNL      -0.580800
     13 C7           1.9550     0.0000     1.7670 c2         1 GNL       0.455200
     14 C8           3.2290     0.2200     2.5420 c3         1 GNL       0.005600
     15 H1          -0.3370     1.0260    -0.0810 h2         1 GNL       0.073700
     16 H2          -1.1820     0.0670     1.7620 h1         1 GNL       0.081700
     17 H3           0.2610    -2.5350     1.5560 h1         1 GNL       0.013700
     18 HO3         -1.0000    -2.8180     3.2160 ho         1 GNL       0.393000
     19 H4          -1.5910    -3.5240     0.3290 h1         1 GNL       0.013700
     20 HO4         -3.3890    -2.3900     0.4170 ho         1 GNL       0.394000
     21 H5           0.3780    -2.5500    -0.8910 h1         1 GNL       0.038700
     22 H6          -1.4830    -3.7470    -2.0970 h1         1 GNL      -0.002300
     23 H6A         -2.2540    -2.1790    -2.3730 h1         1 GNL      -0.002300
     24 HO6         -0.8990    -2.8390    -4.1360 ho         1 GNL       0.391000
     25 H8           3.8460    -0.6680     2.4830 hc         1 GNL       0.022033
     26 H8A          2.9900     0.4250     3.5790 hc         1 GNL       0.022033
     27 H8B          3.7660     1.0620     2.1230 hc         1 GNL       0.022033
@<TRIPOS>BOND
     1     1     2 1   
     2     1     3 1   
     3     1    10 1   
     4     1    15 1   
     5     2    13 1   
     6     3     4 1   
     7     3     5 1   
     8     3    16 1   
     9     4    13 2   
    10     5     6 1   
    11     5     7 1   
    12     5    17 1   
    13     6    18 1   
    14     7     8 1   
    15     7     9 1   
    16     7    19 1   
    17     8    20 1   
    18     9    10 1   
    19     9    11 1   
    20     9    21 1   
    21    11    12 1   
    22    11    22 1   
    23    11    23 1   
    24    12    24 1   
    25    13    14 1   
    26    14    25 1   
    27    14    26 1   
    28    14    27 1   
@<TRIPOS>SUBSTRUCTURE
     1 GNL         1 TEMP              0 ****  ****    0 ROOT
