@<TRIPOS>MOLECULE
molecule
   70    72     1     0     0
SMALL
bcc


@<TRIPOS>ATOM
      1 O5           0.0000     0.0000     0.0000 o          1 GNQ      -0.610300
      2 S            1.4210     0.0000     0.0000 s6         1 GNQ       1.108000
      3 O4           2.1230     0.0000     1.2360 o          1 GNQ      -0.610300
      4 C17          2.0120    -1.3840    -1.0140 c3         1 GNQ      -0.144300
      5 C18          1.6290    -2.6850    -0.3580 ca         1 GNQ      -0.092300
      6 C20          2.4920    -3.2860     0.5410 ca         1 GNQ      -0.105000
      7 C21          2.1390    -4.4790     1.1450 ca         1 GNQ      -0.126000
      8 C22          0.9290    -5.0750     0.8450 ca         1 GNQ      -0.116000
      9 C23          0.0700    -4.4780    -0.0580 ca         1 GNQ      -0.126000
     10 C19          0.4200    -3.2830    -0.6590 ca         1 GNQ      -0.105000
     11 C16          2.0110     1.3830    -1.0150 c3         1 GNQ      -0.236600
     12 CA           1.6240     2.7050    -0.3480 c3         1 GNQ       0.097700
     13 N            0.1660     2.7800    -0.2220 ns         1 GNQ      -0.601900
     14 C11         -0.6090     2.7300    -1.3240 c          1 GNQ       0.817100
     15 O3          -0.1070     2.5280    -2.4120 o          1 GNQ      -0.653100
     16 N3          -1.9420     2.9040    -1.2180 n          1 GNQ      -0.501800
     17 C15         -2.5650     3.2800     0.0630 c3         1 GNQ       0.083000
     18 C14         -3.5430     4.4290    -0.2020 c3         1 GNQ       0.107400
     19 O2          -4.4870     4.0350    -1.1980 os         1 GNQ      -0.400600
     20 C13         -3.7870     3.9200    -2.4360 c3         1 GNQ       0.107400
     21 C12         -2.8290     2.7310    -2.3800 c3         1 GNQ       0.083000
     22 C            2.1150     3.8550    -1.1910 c          1 GNQ       0.646100
     23 O            1.3480     4.4350    -1.9300 o          1 GNQ      -0.561100
     24 N2           3.4050     4.2370    -1.1240 ns         1 GNQ      -0.591900
     25 C9           3.8810     5.3540    -1.9430 c3         1 GNQ       0.101700
     26 C10          3.6040     6.6730    -1.2170 c3         1 GNQ      -0.109100
     27 C8           5.3850     5.2080    -2.1790 c3         1 GNQ       0.223800
     28 N1           5.6620     3.8950    -2.7640 nu         1 GNQ      -0.831600
     29 C7           6.9780     3.5290    -3.0710 ca         1 GNQ       0.188600
     30 C6           7.2410     2.2840    -3.6270 ca         1 GNQ      -0.178500
     31 C5           8.5400     1.9230    -3.9300 ca         1 GNQ      -0.121000
     32 C4           8.0200     4.4120    -2.8260 ca         1 GNQ      -0.178500
     33 C3           9.3190     4.0480    -3.1240 ca         1 GNQ      -0.121000
     34 C2           9.5810     2.8040    -3.6780 ca         1 GNQ       0.030100
     35 O1          10.8590     2.4480    -3.9770 os         1 GNQ      -0.304900
     36 C1          11.6910     3.5500    -3.6080 c3         1 GNQ       0.779700
     37 F1          11.5520     3.8010    -2.2390 f          1 GNQ      -0.205300
     38 F2          13.0260     3.2420    -3.8920 f          1 GNQ      -0.205300
     39 F3          11.3100     4.6850    -4.3310 f          1 GNQ      -0.205300
     40 H171         1.5600    -1.3300    -1.9980 h1         1 GNQ       0.102200
     41 H172         3.0890    -1.3300    -1.1080 h1         1 GNQ       0.102200
     42 H20          3.4400    -2.8180     0.7760 ha         1 GNQ       0.138500
     43 H21          2.8140    -4.9480     1.8510 ha         1 GNQ       0.134500
     44 H22          0.6540    -6.0100     1.3170 ha         1 GNQ       0.132000
     45 H23         -0.8790    -4.9450    -0.2940 ha         1 GNQ       0.134500
     46 H19         -0.2540    -2.8150    -1.3670 ha         1 GNQ       0.138500
     47 H161         1.5600     1.3280    -1.9980 h1         1 GNQ       0.121700
     48 H162         3.0890     1.3290    -1.1090 h1         1 GNQ       0.121700
     49 HA           2.0750     2.7590     0.6350 h1         1 GNQ       0.075700
     50 HN          -0.2540     2.8640     0.6820 hn         1 GNQ       0.327500
     51 H151        -1.8000     3.6060     0.7580 h1         1 GNQ       0.061200
     52 H152        -3.1010     2.4320     0.4710 h1         1 GNQ       0.061200
     53 H141        -2.9940     5.2960    -0.5500 h1         1 GNQ       0.055950
     54 H142        -4.0680     4.6720     0.7140 h1         1 GNQ       0.055950
     55 H131        -4.4990     3.7700    -3.2380 h1         1 GNQ       0.055950
     56 H132        -3.2220     4.8280    -2.6150 h1         1 GNQ       0.055950
     57 H121        -3.3950     1.8140    -2.2720 h1         1 GNQ       0.061200
     58 H122        -2.2380     2.6970    -3.2870 h1         1 GNQ       0.061200
     59 HN2          4.0260     3.7890    -0.4800 hn         1 GNQ       0.316500
     60 H9           3.3640     5.3500    -2.8940 h1         1 GNQ       0.090700
     61 H101         4.1700     7.4690    -1.6860 hc         1 GNQ       0.047033
     62 H102         2.5460     6.9010    -1.2720 hc         1 GNQ       0.047033
     63 H103         3.9000     6.5830    -0.1780 hc         1 GNQ       0.047033
     64 H81          5.7210     5.9840    -2.8570 h1         1 GNQ       0.046700
     65 H82          5.9100     5.3010    -1.2350 h1         1 GNQ       0.046700
     66 HN1          4.9070     3.2760    -2.9840 hn         1 GNQ       0.445800
     67 H6           6.4280     1.5960    -3.8230 ha         1 GNQ       0.137000
     68 H5           8.7450     0.9510    -4.3630 ha         1 GNQ       0.156000
     69 H4           7.8160     5.3840    -2.3930 ha         1 GNQ       0.137000
     70 H3          10.1320     4.7370    -2.9300 ha         1 GNQ       0.156000
@<TRIPOS>BOND
     1     1     2 2
     2     2     3 2
     3     2     4 1
     4     2    11 1
     5     4     5 1
     6     4    40 1
     7     4    41 1
     8     5     6 ar
     9     5    10 ar
    10     6     7 ar
    11     6    42 1
    12     7     8 ar
    13     7    43 1
    14     8     9 ar
    15     8    44 1
    16     9    10 ar
    17     9    45 1
    18    10    46 1
    19    11    12 1
    20    11    47 1
    21    11    48 1
    22    12    13 1
    23    12    22 1
    24    12    49 1
    25    13    14 1
    26    13    50 1
    27    14    15 2
    28    14    16 1
    29    16    17 1
    30    16    21 1
    31    17    18 1
    32    17    51 1
    33    17    52 1
    34    18    19 1
    35    18    53 1
    36    18    54 1
    37    19    20 1
    38    20    21 1
    39    20    55 1
    40    20    56 1
    41    21    57 1
    42    21    58 1
    43    22    23 2
    44    22    24 1
    45    24    25 1
    46    24    59 1
    47    25    26 1
    48    25    27 1
    49    25    60 1
    50    26    61 1
    51    26    62 1
    52    26    63 1
    53    27    28 1
    54    27    64 1
    55    27    65 1
    56    28    29 1
    57    28    66 1
    58    29    30 ar
    59    29    32 ar
    60    30    31 ar
    61    30    67 1
    62    31    34 ar
    63    31    68 1
    64    32    33 ar
    65    32    69 1
    66    33    34 ar
    67    33    70 1
    68    34    35 1
    69    35    36 1
    70    36    37 1
    71    36    38 1
    72    36    39 1
@<TRIPOS>SUBSTRUCTURE
     1 GNQ         1 TEMP              0 ****  ****    0 ROOT
