@<TRIPOS>MOLECULE
GNR
   26    27     1     0     0
SMALL
bcc


@<TRIPOS>ATOM
      1 OAM          0.0000     0.0000     0.0000 o          1 GNR      -0.656500
      2 CAH          1.2130     0.0000     0.0000 c          1 GNR       0.596500
      3 NAG          1.8550     0.0000     1.1660 ns         1 GNR      -0.002100
      4 CAD          3.2380    -0.0870     1.3180 ca         1 GNR      -0.087400
      5 CAC          3.8130     0.3190     2.5160 ca         1 GNR      -0.137000
      6 CAB          5.1790     0.2390     2.6970 ca         1 GNR      -0.065000
      7 CAA          5.9880    -0.2450     1.6870 ca         1 GNR      -0.121000
      8 CAF          5.4290    -0.6580     0.4930 ca         1 GNR      -0.030000
      9 CAE          4.0550    -0.5850     0.3060 ca         1 GNR      -0.005100
     10 SAJ          3.3550    -1.1270    -1.2190 ss         1 GNR      -0.260000
     11 CAI          1.9380     0.0040    -1.3170 c3         1 GNR       0.012400
     12 CAK          2.4330     1.4160    -1.6270 c3         1 GNR      -0.092400
     13 CAL          3.1670     1.4150    -2.9430 c          1 GNR       0.567100
     14 OAN          3.2840     0.3860    -3.5720 o          1 GNR      -0.590100
     15 NAO          3.6940     2.5600    -3.4220 ns         1 GNR      -0.059400
     16 OAP          4.3850     2.5580    -4.6580 oh         1 GNR      -0.434100
     17 HAG          1.3020     0.0670     1.9980 hn         1 GNR       0.181500
     18 HAC          3.1850     0.7000     3.3130 ha         1 GNR       0.111000
     19 HAB          5.6190     0.5630     3.6320 ha         1 GNR       0.105000
     20 HAA          7.0600    -0.3060     1.8330 ha         1 GNR       0.110000
     21 HAF          6.0630    -1.0380    -0.2990 ha         1 GNR       0.123000
     22 HAI          1.2660    -0.3290    -2.0990 h1         1 GNR       0.110700
     23 HAK1         1.5870     2.0900    -1.6870 hc         1 GNR       0.038700
     24 HAK2         3.1010     1.7450    -0.8410 hc         1 GNR       0.038700
     25 HAO          3.5860     3.4130    -2.9100 hn         1 GNR       0.152500
     26 HAP          4.7190     3.4220    -4.8320 ho         1 GNR       0.392000
@<TRIPOS>BOND
     1     1     2 2   
     2     2     3 1   
     3     2    11 1   
     4     3     4 1   
     5     3    17 1   
     6     4     5 ar  
     7     4     9 ar  
     8     5     6 ar  
     9     5    18 1   
    10     6     7 ar  
    11     6    19 1   
    12     7     8 ar  
    13     7    20 1   
    14     8     9 ar  
    15     8    21 1   
    16     9    10 1   
    17    10    11 1   
    18    11    12 1   
    19    11    22 1   
    20    12    13 1   
    21    12    23 1   
    22    12    24 1   
    23    13    14 2   
    24    13    15 1   
    25    15    16 1   
    26    15    25 1   
    27    16    26 1   
@<TRIPOS>SUBSTRUCTURE
     1 GNR         1 TEMP              0 ****  ****    0 ROOT
