@<TRIPOS>MOLECULE
GNS
   28    28     1     0     0
SMALL
bcc


@<TRIPOS>ATOM
      1 C1           0.0000     0.0000     0.0000 c3         1 GNS       0.363900
      2 C2           1.5300     0.0000     0.0000 c3         1 GNS       0.184500
      3 N            2.0200    -1.1970    -0.6880 n7         1 GNS      -0.608100
      4 S1           2.4150    -1.1260    -2.2950 s6         1 GNS       1.108700
      5 O1S          3.6070    -0.1880    -2.4240 o          1 GNS      -0.658533
      6 O2S          2.8810    -2.4200    -2.6520 o          1 GNS      -0.658533
      7 O3S          1.3280    -0.4840    -2.9460 o          1 GNS      -0.658533
      8 C3           2.0340     0.0000     1.4470 c3         1 GNS       0.155100
      9 O3           3.4600     0.0730     1.4580 oh         1 GNS      -0.564800
     10 C4           1.4520     1.2140     2.1780 c3         1 GNS       0.132100
     11 C5          -0.0760     1.1670     2.0930 c3         1 GNS       0.168100
     12 O5          -0.4750     1.1390     0.7210 os         1 GNS      -0.417600
     13 C6          -0.6620     2.4090     2.7690 c3         1 GNS       0.220400
     14 O6          -2.0870     2.3090     2.7940 oh         1 GNS      -0.582800
     15 O4           1.8560     1.1840     3.5480 oh         1 GNS      -0.598800
     16 O1          -0.4770    -1.1930     0.6250 oh         1 GNS      -0.614800
     17 H1          -0.3590     0.0470    -1.0210 h2         1 GNS       0.061700
     18 H2           1.8900     0.8870    -0.5070 h1         1 GNS       0.069700
     19 HN           2.1230    -2.0560    -0.1860 hn         1 GNS       0.313800
     20 H3           1.7090    -0.9080     1.9410 h1         1 GNS       0.017700
     21 HO3          3.8040    -0.5690     2.0570 ho         1 GNS       0.378000
     22 H4           1.8110     2.1220     1.7090 h1         1 GNS       0.020700
     23 H5          -0.4360     0.2750     2.5910 h1         1 GNS       0.036700
     24 H61         -0.3720     3.2930     2.2150 h1         1 GNS      -0.010800
     25 H62         -0.2870     2.4790     3.7830 h1         1 GNS      -0.010800
     26 H6O         -2.4460     3.0520     3.2510 ho         1 GNS       0.374000
     27 HO4          2.5430     1.8150     3.6870 ho         1 GNS       0.388000
     28 HO1         -1.2620    -1.4830     0.1900 ho         1 GNS       0.390000
@<TRIPOS>BOND
     1     1     2 1   
     2     1    12 1   
     3     1    16 1   
     4     1    17 1   
     5     2     3 1   
     6     2     8 1   
     7     2    18 1   
     8     3     4 1   
     9     3    19 1   
    10     4     5 1   
    11     4     6 1   
    12     4     7 1   
    13     8     9 1   
    14     8    10 1   
    15     8    20 1   
    16     9    21 1   
    17    10    11 1   
    18    10    15 1   
    19    10    22 1   
    20    11    12 1   
    21    11    13 1   
    22    11    23 1   
    23    13    14 1   
    24    13    24 1   
    25    13    25 1   
    26    14    26 1   
    27    15    27 1   
    28    16    28 1   
@<TRIPOS>SUBSTRUCTURE
     1 GNS         1 TEMP              0 ****  ****    0 ROOT
