@<TRIPOS>MOLECULE
molecule
   42    45     1     0     0
SMALL
bcc


@<TRIPOS>ATOM
      1 C1           0.0000     0.0000     0.0000 c2         1 GNT      -0.123200
      2 C2           1.2900     0.0000     0.0000 c2         1 GNT      -0.187200
      3 C3           2.1210     0.0000     1.2430 c3         1 GNT       0.187300
      4 C4           1.3260     0.4370     2.4550 c3         1 GNT      -0.081400
      5 C41         -0.0610    -0.1460     2.5130 c3         1 GNT       0.157100
      6 C42         -0.8610     0.0090     1.2180 c3         1 GNT      -0.003500
      7 O5          -0.0450    -1.5600     2.7450 os         1 GNT      -0.275900
      8 C6          -1.5740    -3.4330     2.2640 ca         1 GNT       0.093100
      9 C7          -2.6610    -3.7960     1.4790 ca         1 GNT      -0.181000
     10 C8          -3.2660    -2.9050     0.6270 ca         1 GNT      -0.137000
     11 C9          -3.6460    -0.7030    -0.3950 c3         1 GNT       0.209100
     12 N10         -3.8260     0.6320     0.1330 n3         1 GNT      -0.688600
     13 C11         -2.6130     1.3920     0.0860 c3         1 GNT       0.152800
     14 C12         -1.7250     1.2520     1.2860 c3         1 GNT      -0.060400
     15 C13         -1.1100    -2.1190     2.1290 ca         1 GNT       0.115100
     16 C14         -1.7250    -1.2400     1.2300 ca         1 GNT      -0.114300
     17 C15         -2.8160    -1.5820     0.4930 ca         1 GNT      -0.051300
     18 C16         -1.7120    -5.5390     3.0140 c3         1 GNT       0.105700
     19 O17         -0.9920    -4.3100     3.1270 os         1 GNT      -0.279900
     20 O18          2.6220    -1.3190     1.4670 oh         1 GNT      -0.582800
     21 C19         -4.7840     1.3110    -0.7490 c3         1 GNT       0.135100
     22 H1          -0.4980    -0.0000    -0.9620 ha         1 GNT       0.123000
     23 H2           1.7810    -0.2880    -0.9220 ha         1 GNT       0.128000
     24 H3           2.9540     0.6790     1.1080 h1         1 GNT       0.032700
     25 H41A         1.2450     1.5170     2.4420 hc         1 GNT       0.063700
     26 H42          1.8630     0.1350     3.3460 hc         1 GNT       0.063700
     27 H41         -0.6050     0.3340     3.3180 h1         1 GNT       0.055700
     28 H7          -3.0420    -4.8080     1.5410 ha         1 GNT       0.140000
     29 H8          -4.1110    -3.2350     0.0350 ha         1 GNT       0.127000
     30 H91         -4.6210    -1.1590    -0.5210 h1         1 GNT       0.040200
     31 H92         -3.1620    -0.6310    -1.3610 h1         1 GNT       0.040200
     32 H111        -2.8730     2.4380    -0.0230 h1         1 GNT       0.032200
     33 H112        -2.0540     1.0820    -0.7880 h1         1 GNT       0.032200
     34 H121        -2.3430     1.1990     2.1740 hc         1 GNT       0.055700
     35 H122        -1.0830     2.1220     1.3490 hc         1 GNT       0.055700
     36 H161        -2.7520    -5.3730     3.2700 h1         1 GNT       0.041367
     37 H162        -1.2860    -6.2710     3.6890 h1         1 GNT       0.041367
     38 H163        -1.6450    -5.9050     1.9960 h1         1 GNT       0.041367
     39 H18          3.5490    -1.3360     1.2990 ho         1 GNT       0.394000
     40 H191        -4.3690     1.3790    -1.7480 h1         1 GNT       0.034367
     41 H192        -5.7090     0.7480    -0.7800 h1         1 GNT       0.034367
     42 H193        -4.9800     2.3070    -0.3710 h1         1 GNT       0.034367
@<TRIPOS>BOND
     1     1     2 2
     2     1     6 1
     3     1    22 1
     4     2     3 1
     5     2    23 1
     6     3     4 1
     7     3    20 1
     8     3    24 1
     9     4     5 1
    10     4    25 1
    11     4    26 1
    12     5     6 1
    13     5     7 1
    14     5    27 1
    15     6    14 1
    16     6    16 1
    17     7    15 1
    18     8     9 ar
    19     8    15 ar
    20     8    19 1
    21     9    10 ar
    22     9    28 1
    23    10    17 ar
    24    10    29 1
    25    11    12 1
    26    11    17 1
    27    11    30 1
    28    11    31 1
    29    12    13 1
    30    12    21 1
    31    13    14 1
    32    13    32 1
    33    13    33 1
    34    14    34 1
    35    14    35 1
    36    15    16 ar
    37    16    17 ar
    38    18    19 1
    39    18    36 1
    40    18    37 1
    41    18    38 1
    42    20    39 1
    43    21    40 1
    44    21    41 1
    45    21    42 1
@<TRIPOS>SUBSTRUCTURE
     1 GNT         1 TEMP              0 ****  ****    0 ROOT
