@<TRIPOS>MOLECULE
molecule
   23    24     1     0     0
SMALL
bcc


@<TRIPOS>ATOM
      1 Cl1          0.0000     0.0000     0.0000 cl         1 GO0      -0.183400
      2 C2           1.7360     0.0000     0.0000 ca         1 GO0       0.019400
      3 C3           2.4350     0.0000     1.2050 ca         1 GO0      -0.070200
      4 N4           2.0390    -0.0020     2.5220 na         1 GO0      -0.139400
      5 C6           3.1640    -0.0020     3.3240 cc         1 GO0      -0.062300
      6 C7           4.2730    -0.0000     2.5370 cd         1 GO0      -0.061400
      7 C8           3.8440     0.0000     1.1890 ca         1 GO0      -0.068800
      8 C9           4.5230     0.0020    -0.0390 ca         1 GO0       0.098400
      9 C10          3.8160     0.0030    -1.2070 ca         1 GO0      -0.193000
     10 C12          2.4260    -0.0050    -1.1920 ca         1 GO0      -0.149000
     11 Cl14         6.2580     0.0030    -0.0720 cl         1 GO0      -0.114400
     12 C15          5.7020     0.0010     3.0140 c3         1 GO0      -0.123200
     13 C18          6.1800    -1.4210     3.1720 c          1 GO0       0.916600
     14 O19          5.4360    -2.3390     2.9230 o          1 GO0      -0.870300
     15 O20          7.4320    -1.6640     3.5900 o          1 GO0      -0.870300
     16 C22          3.1630    -0.0010     4.7930 c          1 GO0       0.904800
     17 O23          4.2150    -0.0020     5.4020 o          1 GO0      -0.832300
     18 O24          1.9950    -0.0020     5.4670 o          1 GO0      -0.832300
     19 H10          4.3420    -0.0010    -2.1540 ha         1 GO0       0.112000
     20 H12          1.8800    -0.0040    -2.1280 ha         1 GO0       0.109000
     21 H15          5.7640     0.5110     3.9670 hc         1 GO0       0.050700
     22 H15A         6.3240     0.5120     2.2890 hc         1 GO0       0.050700
     23 HN4          1.0920    -0.0020     2.8460 hn         1 GO0       0.305700
@<TRIPOS>BOND
     1     2     1 1
     2    10     2 ar
     3     3     2 ar
     4     7     3 ar
     5     3     4 1
     6     5     4 1
     7     6     5 2
     8     5    16 1
     9    12     6 1
    10     7     6 1
    11     8     7 ar
    12    11     8 1
    13     8     9 ar
    14     9    10 ar
    15     9    19 1
    16    10    20 1
    17    13    12 1
    18    12    21 1
    19    12    22 1
    20    14    13 1
    21    15    13 1
    22    17    16 1
    23    16    18 1
    24     4    23 1
@<TRIPOS>SUBSTRUCTURE
     1 GO0         1 TEMP              0 ****  ****    0 ROOT
