@<TRIPOS>MOLECULE
GO0
   23    24     1     0     0
SMALL
bcc


@<TRIPOS>ATOM
      1 CL1         0.0250    0.2030    0.0280 cl        1 GO0     -0.172400
      2 C2          1.7330    0.0660    0.0210 ca        1 GO0     -0.016600
      3 C3          2.4460    0.0340    1.2290 ca        1 GO0     -0.056200
      4 N4          2.0220    0.1490    2.5360 na        1 GO0     -0.159400
      5 C6          3.1340    0.0640    3.3970 cc        1 GO0     -0.107300
      6 C7          4.3050   -0.1000    2.6340 cd        1 GO0     -0.038400
      7 C8          3.9040   -0.0930    1.2390 ca        1 GO0     -0.059800
      8 C9          4.5540   -0.1410    0.0040 ca        1 GO0      0.087400
      9 C10         3.8220   -0.1080   -1.1850 ca        1 GO0     -0.206000
     10 C12         2.4250   -0.0120   -1.1800 ca        1 GO0     -0.137000
     11 CL14        6.2460   -0.2160   -0.1020 cl        1 GO0     -0.075400
     12 C15         5.6660   -0.2160    3.1720 c3        1 GO0     -0.141200
     13 C18         6.4910   -1.4580    2.7880 c         1 GO0      0.916600
     14 O19         5.9450   -2.5850    2.6250 o         1 GO0     -0.867800
     15 O20         7.7500   -1.2930    2.6950 o         1 GO0     -0.867800
     16 C22         2.8810    0.2230    4.8890 c         1 GO0      0.932800
     17 O23         3.8310    0.5560    5.6430 o         1 GO0     -0.833800
     18 O24         1.6870    0.0570    5.2900 o         1 GO0     -0.833800
     19 H10         4.3440   -0.1620   -2.1500 ha        1 GO0      0.112000
     20 H12         1.8810    0.0020   -2.1340 ha        1 GO0      0.108000
     21 H15         5.6040   -0.2060    4.2960 hc        1 GO0      0.055200
     22 H15A        6.2540    0.6880    2.8550 hc        1 GO0      0.055200
     23 HN4         1.0890    0.1370    2.8610 hn        1 GO0      0.306700
@<TRIPOS>BOND
     1    1    2 1   
     2    2    3 ar  
     3    2   10 ar  
     4    3    4 1   
     5    3    7 ar  
     6    4    5 1   
     7    4   23 1   
     8    5    6 2   
     9    5   16 1   
    10    6    7 1   
    11    6   12 1   
    12    7    8 ar  
    13    8    9 ar  
    14    8   11 1   
    15    9   10 ar  
    16    9   19 1   
    17   10   20 1   
    18   12   13 1   
    19   12   21 1   
    20   12   22 1   
    21   13   14 1   
    22   13   15 1   
    23   16   17 1   
    24   16   18 1   
@<TRIPOS>SUBSTRUCTURE
     1 GO0         1 TEMP              0 ****  ****    0 ROOT
