@<TRIPOS>MOLECULE
GO1
   23    24     1     0     0
SMALL
bcc


@<TRIPOS>ATOM
      1 CL1         0.0810    0.5410    0.0020 cl        1 GO1     -0.171400
      2 C2          1.7620    0.2140    0.0420 ca        1 GO1     -0.015600
      3 C3          2.4380    0.1270    1.2700 ca        1 GO1     -0.065200
      4 N4          2.0110    0.2880    2.5710 na        1 GO1     -0.158400
      5 C6          3.1010    0.1030    3.4460 cc        1 GO1     -0.119300
      6 C7          4.2580   -0.1730    2.6950 cd        1 GO1     -0.052400
      7 C8          3.8690   -0.1560    1.2990 ca        1 GO1     -0.075800
      8 C9          4.5570   -0.3330    0.1000 ca        1 GO1     -0.040000
      9 C11         3.8460   -0.2320   -1.0930 ca        1 GO1     -0.045600
     10 C12         2.4660    0.0340   -1.1400 ca        1 GO1     -0.135000
     11 CL14        4.6640   -0.4370   -2.5900 cl        1 GO1     -0.175400
     12 C15         5.6070   -0.3890    3.2390 c3        1 GO1     -0.129200
     13 C18         6.5360   -1.2860    2.4070 c         1 GO1      0.905600
     14 O19         6.6070   -2.5210    2.6710 o         1 GO1     -0.868800
     15 O20         7.2590   -0.7480    1.5080 o         1 GO1     -0.868800
     16 C22         2.8540    0.2480    4.9380 c         1 GO1      0.929800
     17 O23         3.8360    0.2940    5.7230 o         1 GO1     -0.835300
     18 O24         1.6450    0.3400    5.3170 o         1 GO1     -0.835300
     19 H9          5.6470   -0.5490    0.1330 ha        1 GO1      0.220000
     20 H12         1.9500    0.0980   -2.1080 ha        1 GO1      0.120000
     21 H15         5.5090   -0.8250    4.2710 hc        1 GO1      0.054700
     22 H15A        6.1060    0.6130    3.3430 hc        1 GO1      0.054700
     23 HN4         1.0850    0.4260    2.8840 hn        1 GO1      0.305700
@<TRIPOS>BOND
     1    1    2 1   
     2    2    3 ar  
     3    2   10 ar  
     4    3    4 1   
     5    3    7 ar  
     6    4    5 1   
     7    4   23 1   
     8    5    6 2   
     9    5   16 1   
    10    6    7 1   
    11    6   12 1   
    12    7    8 ar  
    13    8    9 ar  
    14    8   19 1   
    15    9   10 ar  
    16    9   11 1   
    17   10   20 1   
    18   12   13 1   
    19   12   21 1   
    20   12   22 1   
    21   13   14 1   
    22   13   15 1   
    23   16   17 1   
    24   16   18 1   
@<TRIPOS>SUBSTRUCTURE
     1 GO1         1 TEMP              0 ****  ****    0 ROOT
