@<TRIPOS>MOLECULE
molecule
   23    24     1     0     0
SMALL
bcc


@<TRIPOS>ATOM
      1 Cl1          0.0000     0.0000     0.0000 cl         1 GO1      -0.176400
      2 C2           1.7360     0.0000     0.0000 ca         1 GO1       0.025400
      3 C3           2.4350     0.0000     1.2050 ca         1 GO1      -0.075200
      4 N4           2.0390     0.0010     2.5230 na         1 GO1      -0.139400
      5 C6           3.1640     0.0010     3.3250 cc         1 GO1      -0.059300
      6 C7           4.2720     0.0010     2.5370 cd         1 GO1      -0.069400
      7 C8           3.8430    -0.0000     1.1890 ca         1 GO1      -0.064800
      8 C9           4.5230    -0.0010    -0.0360 ca         1 GO1      -0.050000
      9 C11          3.8170    -0.0020    -1.2050 ca         1 GO1      -0.024600
     10 C12          2.4270    -0.0060    -1.1920 ca         1 GO1      -0.149000
     11 Cl14         4.6640    -0.0030    -2.7210 cl         1 GO1      -0.182400
     12 C15          5.7010     0.0020     3.0160 c3         1 GO1      -0.118200
     13 C18          6.1780    -1.4190     3.1760 c          1 GO1       0.912600
     14 O19          5.4340    -2.3370     2.9270 o          1 GO1      -0.867800
     15 O20          7.4290    -1.6640     3.5950 o          1 GO1      -0.867800
     16 C22          3.1620     0.0030     4.7940 c          1 GO1       0.904800
     17 O23          4.2130     0.0030     5.4030 o          1 GO1      -0.831300
     18 O24          1.9930     0.0030     5.4670 o          1 GO1      -0.831300
     19 H9           5.6060     0.0020    -0.0560 ha         1 GO1       0.147000
     20 H12          1.8820    -0.0060    -2.1280 ha         1 GO1       0.119000
     21 H15          5.7620     0.5120     3.9700 hc         1 GO1       0.046200
     22 H15A         6.3240     0.5130     2.2930 hc         1 GO1       0.046200
     23 HN4          1.0920     0.0010     2.8470 hn         1 GO1       0.305700
@<TRIPOS>BOND
     1     2     1 1
     2     3     2 ar
     3    10     2 ar
     4     7     3 ar
     5     3     4 1
     6     5     4 1
     7     6     5 2
     8     5    16 1
     9    12     6 1
    10     6     7 1
    11     8     7 ar
    12     8     9 ar
    13     8    19 1
    14    11     9 1
    15     9    10 ar
    16    10    20 1
    17    13    12 1
    18    12    21 1
    19    12    22 1
    20    14    13 1
    21    15    13 1
    22    17    16 1
    23    16    18 1
    24     4    23 1
@<TRIPOS>SUBSTRUCTURE
     1 GO1         1 TEMP              0 ****  ****    0 ROOT
