@<TRIPOS>MOLECULE
molecule
   66    68     1     0     0
SMALL
bcc


@<TRIPOS>ATOM
      1 C4           0.0000     0.0000     0.0000 ca         1 GO7      -0.039000
      2 C20          1.7280    -2.2450    11.5080 ca         1 GO7      -0.076000
      3 C16         -0.2590    -3.3680    10.7780 ca         1 GO7      -0.076000
      4 C5           1.3760     0.0000     0.0000 ca         1 GO7      -0.242000
      5 C19          1.4400    -2.5810    12.8160 ca         1 GO7      -0.162000
      6 C17         -0.5450    -3.7160    12.0840 ca         1 GO7      -0.162000
      7 C1           1.3930     0.0000     2.4100 ca         1 GO7      -0.278000
      8 C3          -0.6990    -0.0000     1.2110 ca         1 GO7      -0.295600
      9 C15          0.8800    -2.6390    10.4890 ca         1 GO7      -0.100300
     10 C18          0.3020    -3.3180    13.1080 ca         1 GO7       0.126100
     11 C6           2.0760     0.0000     1.2030 ca         1 GO7       0.260100
     12 C2           0.0090    -0.0050     2.4230 ca         1 GO7       0.279100
     13 C8          -2.1720     0.0050     1.2150 c          1 GO7       0.503700
     14 C13          0.5660    -0.9420     8.7340 c          1 GO7       0.673100
     15 C12         -0.7430     0.7180     5.9070 c3         1 GO7      -0.095400
     16 C11          0.1080     0.8850     7.1700 c3         1 GO7       0.106000
     17 C10          1.4920    -1.1140     6.4750 c3         1 GO7       0.072000
     18 C7           0.1200     0.1220     4.7920 c3         1 GO7       0.107100
     19 C9           0.6270    -1.2580     5.2200 c3         1 GO7       0.129600
     20 C25          6.0080    -1.2510     0.8870 c3         1 GO7      -0.123600
     21 C24          6.2790    -0.0020    -1.2590 c3         1 GO7      -0.123600
     22 C14          1.1960    -2.2700     9.0630 c3         1 GO7      -0.109100
     23 C22          4.0740    -0.0010    -0.0830 c3         1 GO7       0.146400
     24 C23          5.5920    -0.0020     0.1080 c3         1 GO7       0.153800
     25 C21         -1.1670    -4.3320    14.5780 c3         1 GO7       0.816700
     26 N2           0.7160    -0.4090     7.5050 n          1 GO7      -0.494800
     27 N1          -2.8480     0.0110     0.0500 nz         1 GO7      -0.676400
     28 O2          -2.7770     0.0060     2.2700 o          1 GO7      -0.409100
     29 O3          -0.0770    -0.3520     9.5770 o          1 GO7      -0.570100
     30 O6           5.9810     1.1650     0.8350 oh         1 GO7      -0.595800
     31 O1          -0.6620    -0.0060     3.6020 os         1 GO7      -0.280900
     32 O4           3.4330    -0.0010     1.1940 os         1 GO7      -0.284900
     33 O5           0.0380    -3.6410    14.4010 os         1 GO7      -0.338900
     34 F4          -0.4630    -2.0900     5.4960 f          1 GO7      -0.220300
     35 F3          -2.1960    -3.5890    14.0760 f          1 GO7      -0.208967
     36 F2          -1.1060    -5.5280    13.9220 f          1 GO7      -0.208967
     37 F1          -1.3720    -4.5540    15.9090 f          1 GO7      -0.208967
     38 H1          -0.5420    -0.0000    -0.9380 ha         1 GO7       0.113000
     39 H2           2.6240    -1.6830    11.2780 ha         1 GO7       0.136000
     40 H3          -0.9060    -3.6980     9.9750 ha         1 GO7       0.136000
     41 H4           1.9180     0.0000    -0.9380 ha         1 GO7       0.163000
     42 H5           2.1110    -2.2810    13.6120 ha         1 GO7       0.154500
     43 H6          -1.4380    -4.2870    12.3080 ha         1 GO7       0.154500
     44 H7           1.9420     0.0420     3.3430 ha         1 GO7       0.178000
     45 H8          -1.1110     1.6900     5.6020 hc         1 GO7       0.077200
     46 H9          -1.5830     0.0730     6.1340 hc         1 GO7       0.077200
     47 H11         -0.5320     1.2130     7.9810 h1         1 GO7       0.075200
     48 H10          0.8630     1.6400     6.9860 h1         1 GO7       0.075200
     49 H13          2.4680    -0.7550     6.1700 h1         1 GO7       0.070200
     50 H12          1.6100    -2.0960     6.9150 h1         1 GO7       0.070200
     51 H14          0.9660     0.7730     4.6060 h1         1 GO7       0.068700
     52 H15          1.2210    -1.6860     4.4210 h1         1 GO7       0.061700
     53 H16          7.0860    -1.3550     0.8560 hc         1 GO7       0.052367
     54 H18          5.5480    -2.1250     0.4410 hc         1 GO7       0.052367
     55 H17          5.6840    -1.1590     1.9170 hc         1 GO7       0.052367
     56 H20          6.1100     0.9500    -1.7480 hc         1 GO7       0.052367
     57 H21          5.8690    -0.7990    -1.8690 hc         1 GO7       0.052367
     58 H19          7.3430    -0.1580    -1.1290 hc         1 GO7       0.052367
     59 H22          1.0100    -3.1340     8.4360 hc         1 GO7       0.068700
     60 H23          2.2480    -2.0180     8.9980 hc         1 GO7       0.068700
     61 H25          3.7490    -0.9870    -0.3920 h1         1 GO7       0.053200
     62 H24          3.8060     0.7220    -0.8440 h1         1 GO7       0.053200
     63 H27         -3.8320     0.0120     0.2350 hn         1 GO7       0.472467
     64 H26         -2.6100    -0.8050    -0.4790 hn         1 GO7       0.472467
     65 H28          6.9010     1.1200     1.0340 ho         1 GO7       0.419000
     66 H131        -2.6080     0.8300    -0.4720 hn         1 GO7       0.472467
@<TRIPOS>BOND
     1    30    24 1
     2    20    24 1
     3    23    24 1
     4    23    32 1
     5    24    21 1
     6     4     1 ar
     7     4    11 ar
     8     1     8 ar
     9    32    11 1
    10    11     7 ar
    11    28    13 2
    12     8    13 1
    13     8    12 ar
    14    13    27 1
    15     7    12 ar
    16    12    31 1
    17    31    18 1
    18    18    15 1
    19    18    19 1
    20    15    16 1
    21    19    34 1
    22    19    17 1
    23    16    26 1
    24    17    26 1
    25    26    14 1
    26    14    29 2
    27    14    22 1
    28    22     9 1
    29     9     3 ar
    30     9     2 ar
    31     3     6 ar
    32     2     5 ar
    33     6    10 ar
    34     5    10 ar
    35    10    33 1
    36    37    25 1
    37    35    25 1
    38    33    25 1
    39    25    36 1
    40     1    38 1
    41     2    39 1
    42     3    40 1
    43     4    41 1
    44     5    42 1
    45     6    43 1
    46     7    44 1
    47    15    45 1
    48    15    46 1
    49    16    47 1
    50    16    48 1
    51    17    49 1
    52    17    50 1
    53    18    51 1
    54    19    52 1
    55    20    53 1
    56    20    54 1
    57    20    55 1
    58    21    56 1
    59    21    57 1
    60    21    58 1
    61    22    59 1
    62    22    60 1
    63    23    61 1
    64    23    62 1
    65    27    63 1
    66    27    64 1
    67    30    65 1
    68    66    27 1
@<TRIPOS>SUBSTRUCTURE
     1 GO7         1 TEMP              0 ****  ****    0 ROOT
