@<TRIPOS>MOLECULE
GOA
    8     7     1     0     0
SMALL
bcc


@<TRIPOS>ATOM
      1 C1         -0.0410   -0.0630   -0.0050 c         1 GOA      0.924600
      2 C2          1.4840    0.2020    0.0880 c3        1 GOA      0.003400
      3 O11        -0.7970    0.6210    0.7380 o         1 GOA     -0.838300
      4 O12        -0.4350   -0.8980   -0.8650 o         1 GOA     -0.838300
      5 O2          2.0490   -0.6740    1.0490 oh        1 GOA     -0.585800
      6 H22         1.9620    0.0220   -0.9110 h1        1 GOA     -0.007300
      7 H21         1.6650    1.2650    0.3960 h1        1 GOA     -0.007300
      8 H2          2.9910   -0.4700    1.0690 ho        1 GOA      0.349000
@<TRIPOS>BOND
     1    1    2 1   
     2    1    3 1   
     3    1    4 1   
     4    2    5 1   
     5    2    6 1   
     6    2    7 1   
     7    5    8 1   
@<TRIPOS>SUBSTRUCTURE
     1 GOA         1 TEMP              0 ****  ****    0 ROOT
