@<TRIPOS>MOLECULE
molecule
    8     7     1     0     0
SMALL
bcc


@<TRIPOS>ATOM
      1 C1           0.0000     0.0000     0.0000 c          1 GOA       0.895600
      2 C2           1.5070     0.0000     0.0000 c3         1 GOA       0.027400
      3 O11         -0.6040     0.0000     1.0460 o          1 GOA      -0.841300
      4 O12         -0.6720     0.0060    -1.1620 o          1 GOA      -0.841300
      5 O2           1.9830    -0.0010     1.3470 oh         1 GOA      -0.593800
      6 H22          1.8690    -0.8840    -0.5110 h1         1 GOA       0.001700
      7 H21          1.8690     0.8850    -0.5100 h1         1 GOA       0.001700
      8 H2           2.9260    -0.0020     1.3480 ho         1 GOA       0.350000
@<TRIPOS>BOND
     1     1     2 1
     2     1     3 1
     3     1     4 1
     4     2     5 1
     5     2     6 1
     6     2     7 1
     7     5     8 1
@<TRIPOS>SUBSTRUCTURE
     1 GOA         1 TEMP              0 ****  ****    0 ROOT
