@<TRIPOS>MOLECULE
molecule
   59    61     1     0     0
SMALL
bcc


@<TRIPOS>ATOM
      1 C1           0.0000     0.0000     0.0000 c3         1 GOB       0.130700
      2 O2           1.4290     0.0000     0.0000 os         1 GOB      -0.319900
      3 C3           2.0450     0.0000     1.2110 ca         1 GOB       0.182100
      4 C4           1.2930    -0.0000     2.3740 ca         1 GOB      -0.319000
      5 C5           1.9250    -0.0020     3.6080 ca         1 GOB       0.235100
      6 C6           3.3090    -0.0020     3.6800 ca         1 GOB      -0.356500
      7 C7           4.0630    -0.0010     2.5220 ca         1 GOB       0.028000
      8 C8           3.4370    -0.0060     1.2850 ca         1 GOB       0.004600
      9 N9           4.2030    -0.0110     0.1100 ns         1 GOB      -0.484100
     10 C10          5.4030    -0.6250     0.0910 c          1 GOB       0.647100
     11 O11          5.7840    -1.2430     1.0620 o          1 GOB      -0.604100
     12 C12          6.2710    -0.5430    -1.1380 c3         1 GOB      -0.132400
     13 C13          7.5680    -1.3180    -0.9000 c3         1 GOB      -0.170400
     14 C14          8.4360    -1.2370    -2.1280 c          1 GOB       0.889600
     15 O15          8.0560    -0.6200    -3.0960 o          1 GOB      -0.855300
     16 O16          9.6310    -1.8470    -2.1480 o          1 GOB      -0.855300
     17 S17          4.1090    -0.0030     5.2510 sy         1 GOB       1.446200
     18 O18          3.4940    -1.0320     6.0130 o          1 GOB      -0.624800
     19 O19          5.5040     0.0430     4.9900 o          1 GOB      -0.624800
     20 N20          3.7240     1.4250     5.9970 nh         1 GOB      -0.518300
     21 C21          4.2050     2.6320     5.4860 ca         1 GOB       0.149600
     22 C22          5.3900     2.6580     4.7610 ca         1 GOB      -0.174000
     23 C23          5.8620     3.8540     4.2550 ca         1 GOB      -0.107500
     24 C24          5.1570     5.0230     4.4720 ca         1 GOB      -0.155000
     25 C25          3.9770     5.0010     5.1920 ca         1 GOB      -0.107500
     26 C26          3.4960     3.8080     5.6940 ca         1 GOB      -0.174000
     27 C27          2.9180     1.4210     7.1420 ca         1 GOB       0.091600
     28 C28          3.0420     2.4360     8.0820 ca         1 GOB      -0.101000
     29 C29          2.2450     2.4330     9.2100 ca         1 GOB      -0.199500
     30 C30          1.3220     1.4140     9.4050 ca         1 GOB       0.183600
     31 C31          1.1980     0.4000     8.4660 ca         1 GOB      -0.199500
     32 C32          1.9900     0.4060     7.3350 ca         1 GOB      -0.101000
     33 N33          0.5160     1.4110    10.5500 nv         1 GOB      -0.930200
     34 O34          1.1850    -0.0020     4.7490 os         1 GOB      -0.329900
     35 C35         -0.2360    -0.0000     4.6020 c3         1 GOB       0.133700
     36 H1          -0.3610     0.0070    -1.0210 h1         1 GOB       0.040367
     37 H1A         -0.3610    -0.8880     0.5050 h1         1 GOB       0.040367
     38 H1B         -0.3610     0.8810     0.5170 h1         1 GOB       0.040367
     39 H4           0.2110    -0.0300     2.3190 ha         1 GOB       0.138000
     40 H7           5.1450     0.0160     2.5810 ha         1 GOB       0.204000
     41 HN9          3.8730     0.4690    -0.7030 hn         1 GOB       0.331500
     42 H12          5.7440    -0.9720    -1.9820 hc         1 GOB       0.068200
     43 H12A         6.5030     0.4940    -1.3470 hc         1 GOB       0.068200
     44 H13          7.3360    -2.3550    -0.6910 hc         1 GOB       0.047200
     45 H13A         8.0950    -0.8890    -0.0560 hc         1 GOB       0.047200
     46 H22          5.9430     1.7420     4.5920 ha         1 GOB       0.170500
     47 H23          6.7860     3.8760     3.6900 ha         1 GOB       0.132000
     48 H24          5.5310     5.9600     4.0770 ha         1 GOB       0.125000
     49 H25          3.4260     5.9190     5.3570 ha         1 GOB       0.132000
     50 H26          2.5710     3.7910     6.2590 ha         1 GOB       0.170500
     51 H28          3.7620     3.2310     7.9300 ha         1 GOB       0.171500
     52 H29          2.3410     3.2250     9.9430 ha         1 GOB       0.126500
     53 H31          0.4760    -0.3930     8.6180 ha         1 GOB       0.126500
     54 H32          1.8930    -0.3870     6.6020 ha         1 GOB       0.171500
     55 HN33        -0.1500     0.6760    10.6910 hn         1 GOB       0.423800
     56 HN3A         0.6050     2.1420    11.2270 hn         1 GOB       0.423800
     57 H35         -0.7010     0.0140     5.5800 h1         1 GOB       0.041700
     58 H35A        -0.5440    -0.8920     4.0690 h1         1 GOB       0.041700
     59 H35B        -0.5400     0.8770     4.0440 h1         1 GOB       0.041700
@<TRIPOS>BOND
     1     1     2 1
     2     1    36 1
     3     1    37 1
     4     1    38 1
     5     3     2 1
     6     3     4 ar
     7     3     8 ar
     8     4     5 ar
     9     4    39 1
    10     5     6 ar
    11    34     5 1
    12    17     6 1
    13     6     7 ar
    14     7     8 ar
    15     7    40 1
    16     8     9 1
    17     9    10 1
    18     9    41 1
    19    11    10 2
    20    10    12 1
    21    12    13 1
    22    12    42 1
    23    12    43 1
    24    13    14 1
    25    13    44 1
    26    13    45 1
    27    14    15 1
    28    14    16 1
    29    18    17 2
    30    20    17 1
    31    17    19 2
    32    27    20 1
    33    20    21 1
    34    22    21 ar
    35    21    26 ar
    36    22    23 ar
    37    22    46 1
    38    23    24 ar
    39    23    47 1
    40    24    25 ar
    41    24    48 1
    42    26    25 ar
    43    25    49 1
    44    26    50 1
    45    28    27 ar
    46    32    27 ar
    47    29    28 ar
    48    28    51 1
    49    30    29 ar
    50    29    52 1
    51    33    30 1
    52    30    31 ar
    53    31    32 ar
    54    31    53 1
    55    32    54 1
    56    33    55 1
    57    33    56 1
    58    35    34 1
    59    35    57 1
    60    35    58 1
    61    35    59 1
@<TRIPOS>SUBSTRUCTURE
     1 GOB         1 TEMP              0 ****  ****    0 ROOT
