@<TRIPOS>MOLECULE
GOD
   52    54     1     0     0
SMALL
bcc


@<TRIPOS>ATOM
      1 C4           0.0000     0.0000     0.0000 ca         1 GOD       0.390200
      2 C5           1.3330    -0.0000     2.3910 ca         1 GOD       0.003800
      3 C8          -0.0630    -0.0010     2.3080 ca         1 GOD       0.496200
      4 C15          5.8410     0.0090     6.4150 c          1 GOD       0.605100
      5 C20          9.3170     0.8620     9.1280 ca         1 GOD      -0.153500
      6 C21          8.8990     0.3290    10.3390 ca         1 GOD       0.139100
      7 C22          7.8720    -0.6020    10.3660 ca         1 GOD      -0.153500
      8 C1           1.3940     0.0000     0.0000 ca         1 GOD      -0.233900
      9 C2           2.1430     0.0010    -1.2720 c          1 GOD       0.597700
     10 C3           2.0770     0.0000     1.2270 ca         1 GOD      -0.115000
     11 N6          -0.6730    -0.0000     1.1320 nb         1 GOD      -0.562000
     12 O7           1.9500    -0.0010     3.6030 os         1 GOD      -0.255900
     13 C9           3.3790    -0.0010     3.6030 c3         1 GOD       0.105100
     14 N10         -0.8180    -0.0020     3.4700 nv         1 GOD      -0.644500
     15 C11          3.9250     0.6090     4.9120 c3         1 GOD       0.063000
     16 C12          3.9280    -1.4510     3.6400 c3         1 GOD       0.339600
     17 N13          5.0930    -0.1900     5.3120 n          1 GOD      -0.169800
     18 C14          5.3130    -1.2430     4.3040 c3         1 GOD       0.006000
     19 C16          7.0160    -0.8890     6.7010 c3         1 GOD      -0.033100
     20 O17          5.5670     0.9120     7.1780 o          1 GOD      -0.617100
     21 C18          7.6780    -0.4570     7.9840 ca         1 GOD      -0.098300
     22 C19          8.7060     0.4670     7.9530 ca         1 GOD      -0.040500
     23 C23          7.2670    -0.9960     9.1890 ca         1 GOD      -0.040500
     24 C25          9.0150     0.1300    12.7050 c3         1 GOD       0.755700
     25 F26          9.7340     0.6380    13.7900 f          1 GOD      -0.197633
     26 F27          7.6570     0.4300    12.8620 f          1 GOD      -0.197633
     27 F28          9.1800    -1.2590    12.6460 f          1 GOD      -0.197633
     28 F29          4.0650    -1.9690     2.3480 f          1 GOD      -0.199300
     29 F30          3.1140    -2.2760     4.4250 f          1 GOD      -0.199300
     30 O31          3.3580     0.0010    -1.2630 o          1 GOD      -0.647100
     31 N32          1.4780     0.0030    -2.4450 ns         1 GOD      -0.193900
     32 C33          2.2200     0.0040    -3.7080 c3         1 GOD       0.087300
     33 HC4         -0.5360     0.0010    -0.9420 h4         1 GOD      -0.020900
     34 HC20        10.1210     1.5870     9.1030 ha         1 GOD       0.125000
     35 HC22         7.5460    -1.0220    11.3100 ha         1 GOD       0.125000
     36 HC3          3.1600     0.0000     1.2590 ha         1 GOD       0.150000
     37 HC9          3.7690     0.5320     2.7440 h1         1 GOD       0.063700
     38 H10B        -1.0520     0.8630     3.9160 hn         1 GOD       0.280300
     39 H10A        -1.1640    -0.8650     3.8410 hn         1 GOD       0.280300
     40 H11B         3.1670     0.5610     5.6840 h1         1 GOD       0.043700
     41 H11A         4.2230     1.6360     4.7430 h1         1 GOD       0.043700
     42 H14B         6.0360    -0.9140     3.5680 h1         1 GOD       0.045200
     43 H14A         5.6410    -2.1580     4.7830 h1         1 GOD       0.045200
     44 H16A         7.7290    -0.8230     5.8880 hc         1 GOD       0.034200
     45 H16B         6.6740    -1.9120     6.7990 hc         1 GOD       0.034200
     46 HC19         9.0320     0.8830     7.0070 ha         1 GOD       0.107000
     47 HC23         6.4640    -1.7230     9.2100 ha         1 GOD       0.107000
     48 HN32         0.4770     0.0020    -2.4530 hn         1 GOD       0.177500
     49 H33B         2.8430     0.8890    -3.7590 h1         1 GOD       0.011033
     50 H33C         2.8430    -0.8800    -3.7610 h1         1 GOD       0.011033
     51 H33A         1.5220     0.0050    -4.5360 h1         1 GOD       0.011033
     52 O24          9.4960     0.7190    11.4960 os         1 GOD      -0.314900
@<TRIPOS>BOND
     1     1     8 ar  
     2     1    11 ar  
     3     1    33 1   
     4     2     3 ar  
     5     2    10 ar  
     6     2    12 1   
     7     3    11 ar  
     8     3    14 1   
     9     4    17 1   
    10     4    19 1   
    11     4    20 2   
    12     5     6 ar  
    13     5    22 ar  
    14     5    34 1   
    15     6     7 ar  
    16     6    52 1   
    17     7    23 ar  
    18     7    35 1   
    19     8     9 1   
    20     8    10 ar  
    21     9    30 2   
    22     9    31 1   
    23    10    36 1   
    24    12    13 1   
    25    13    15 1   
    26    13    16 1   
    27    13    37 1   
    28    14    38 1   
    29    14    39 1   
    30    15    17 1   
    31    15    40 1   
    32    15    41 1   
    33    16    18 1   
    34    16    28 1   
    35    16    29 1   
    36    17    18 1   
    37    18    42 1   
    38    18    43 1   
    39    19    21 1   
    40    19    44 1   
    41    19    45 1   
    42    21    22 ar  
    43    21    23 ar  
    44    22    46 1   
    45    23    47 1   
    46    24    25 1   
    47    24    26 1   
    48    24    27 1   
    49    24    52 1   
    50    31    32 1   
    51    31    48 1   
    52    32    49 1   
    53    32    50 1   
    54    32    51 1   
@<TRIPOS>SUBSTRUCTURE
     1 GOD         1 TEMP              0 ****  ****    0 ROOT
