@<TRIPOS>MOLECULE
GOI
   77    81     1     0     0
SMALL
bcc


@<TRIPOS>ATOM
      1 C1           0.0000     0.0000     0.0000 c3         1 GOI       0.388900
      2 O1          -0.4760     0.0560    -1.3460 os         1 GOI      -0.373600
      3 C2           1.5310     0.0000     0.0000 c3         1 GOI       0.149100
      4 O2           2.0080    -1.1670    -0.6720 oh         1 GOI      -0.570800
      5 C3           2.0350     0.0000     1.4460 c3         1 GOI       0.140100
      6 O3           3.4610     0.0740     1.4570 oh         1 GOI      -0.588800
      7 C4           1.4530     1.2140     2.1770 c3         1 GOI       0.134100
      8 O4           1.8580     1.1860     3.5470 oh         1 GOI      -0.584800
      9 C5          -0.0740     1.1680     2.0930 c3         1 GOI       0.173100
     10 O5          -0.4740     1.1380     0.7220 os         1 GOI      -0.416600
     11 C6          -0.6600     2.4090     2.7690 c3         1 GOI       0.224400
     12 O6          -2.0860     2.3100     2.7940 oh         1 GOI      -0.583800
     13 CAE          0.9860    -8.2090   -12.0960 ca         1 GOI      -0.102000
     14 CAF         -5.1500    -5.1260   -10.9550 ca         1 GOI      -0.102000
     15 CAG          1.2590    -6.9300   -12.2420 ca         1 GOI      -0.095500
     16 CAH         -4.3440    -4.1140   -11.2000 ca         1 GOI      -0.095500
     17 CAI         -0.0540    -8.6330   -11.1460 ca         1 GOI      -0.083500
     18 CAJ         -4.6300    -6.3330   -10.2950 ca         1 GOI      -0.083500
     19 CAK          0.5210    -5.9290   -11.4560 ca         1 GOI      -0.080500
     20 CAL         -2.9260    -4.1960   -10.8140 ca         1 GOI      -0.080500
     21 CAM         -1.7380    -8.1920    -9.4920 cc         1 GOI      -0.089000
     22 CAN         -2.8760    -7.6210    -9.2810 cd         1 GOI      -0.089000
     23 CAO         -1.4910    -4.2980    -7.7080 c3         1 GOI      -0.045400
     24 CAQ         -1.8960    -0.0520    -1.4650 c3         1 GOI       0.205400
     25 CAS         -2.2910     0.0200    -2.9410 c3         1 GOI       0.147800
     26 CAT         -1.9000    -3.5600    -4.0440 c3         1 GOI       0.149300
     27 CAU         -1.0580    -2.1110    -5.7910 c3         1 GOI       0.149300
     28 CAV         -2.5390    -2.3540    -3.3510 c3         1 GOI       0.151300
     29 CAW         -1.6970    -0.9050    -5.0980 c3         1 GOI       0.151300
     30 CAX         -0.9300    -5.5160    -8.4460 c3         1 GOI      -0.061700
     31 CBA         -0.7150    -7.7360   -10.4380 ca         1 GOI      -0.059000
     32 CBB         -3.3590    -6.4080    -9.9460 ca         1 GOI      -0.059000
     33 CBC         -0.4160    -6.3080   -10.6060 ca         1 GOI      -0.109200
     34 CBD         -2.4590    -5.2810   -10.2260 ca         1 GOI      -0.109200
     35 NBJ         -1.8430    -3.3170    -5.4920 n3         1 GOI      -0.545600
     36 NBK         -1.7530    -1.1480    -3.6500 n3         1 GOI      -0.531600
     37 NBL         -1.1090    -5.3360    -9.8930 na         1 GOI       0.176700
     38 H1          -0.3590    -0.9040     0.4780 h2         1 GOI       0.002700
     39 H2           1.8910     0.8870    -0.5070 h1         1 GOI       0.028700
     40 HO2          2.8650    -0.9980    -1.0270 ho         1 GOI       0.399000
     41 H3           1.7110    -0.9080     1.9400 h1         1 GOI       0.025700
     42 HO3          3.8060    -0.5920     2.0280 ho         1 GOI       0.401000
     43 H4           1.8130     2.1220     1.7080 h1         1 GOI       0.024700
     44 HO4          2.5020     1.8570     3.6990 ho         1 GOI       0.398000
     45 H5          -0.4350     0.2760     2.5910 h1         1 GOI       0.027700
     46 H6          -0.3690     3.2940     2.2150 h1         1 GOI      -0.002300
     47 H6A         -0.2850     2.4790     3.7830 h1         1 GOI      -0.002300
     48 HO6         -2.4350     2.9440     3.3990 ho         1 GOI       0.388000
     49 HAF         -6.1940    -5.0690   -11.2370 ha         1 GOI       0.103000
     50 HAG          2.0240    -6.6140   -12.9410 ha         1 GOI       0.103000
     51 HAH         -4.7230    -3.2230   -11.6860 ha         1 GOI       0.103000
     52 HAI         -0.2790    -9.6860   -11.0270 ha         1 GOI       0.105500
     53 HAJ         -5.2940    -7.1650   -10.0930 ha         1 GOI       0.105500
     54 HAK          0.7460    -4.8760   -11.5760 ha         1 GOI       0.116000
     55 HAL         -2.2630    -3.3640   -11.0160 ha         1 GOI       0.116000
     56 HAM         -1.5200    -9.0860    -8.9210 ha         1 GOI       0.101500
     57 HAN         -3.5310    -8.0790    -8.5500 ha         1 GOI       0.101500
     58 HAO         -0.9650    -3.4070    -8.0280 hc         1 GOI       0.032200
     59 HAOA        -2.5460    -4.1950    -7.9310 hc         1 GOI       0.032200
     60 HAQ         -2.2220    -0.9980    -1.0500 h1         1 GOI       0.002200
     61 HAQA        -2.3670     0.7610    -0.9250 h1         1 GOI       0.002200
     62 HAS         -1.8880     0.9260    -3.3790 h1         1 GOI       0.016200
     63 HASA        -3.3710     0.0280    -3.0260 h1         1 GOI       0.016200
     64 HAT         -2.4970    -4.4440    -3.8500 h1         1 GOI       0.016700
     65 HATA        -0.8970    -3.7040    -3.6630 h1         1 GOI       0.016700
     66 HAU         -1.0450    -1.9460    -6.8610 h1         1 GOI       0.016700
     67 HAUA        -0.0460    -2.2410    -5.4270 h1         1 GOI       0.016700
     68 HAV         -2.5520    -2.5190    -2.2800 h1         1 GOI       0.013200
     69 HAVA        -3.5510    -2.2240    -3.7150 h1         1 GOI       0.013200
     70 HAW         -2.7010    -0.7620    -5.4780 h1         1 GOI       0.013200
     71 HAWA        -1.1010    -0.0220    -5.2920 h1         1 GOI       0.013200
     72 HAX         -1.4560    -6.4070    -8.1250 h1         1 GOI       0.026700
     73 HAXA         0.1250    -5.6190    -8.2230 h1         1 GOI       0.026700
     74 CAR         -1.3050    -4.4860    -6.2000 c3         1 GOI       0.157800
     75 HAE          1.5270    -8.9480   -12.6740 ha         1 GOI       0.103000
     76 HAR         -1.8320    -5.3770    -5.8800 h1         1 GOI       0.007700
     77 HARA        -0.2500    -4.5900    -5.9770 h1         1 GOI       0.007700
@<TRIPOS>BOND
     1     1     2 1   
     2     1     3 1   
     3     1    10 1   
     4     1    38 1   
     5     2    24 1   
     6     3     4 1   
     7     3     5 1   
     8     3    39 1   
     9     4    40 1   
    10     5     6 1   
    11     5     7 1   
    12     5    41 1   
    13     6    42 1   
    14     7     8 1   
    15     7     9 1   
    16     7    43 1   
    17     8    44 1   
    18     9    10 1   
    19     9    11 1   
    20     9    45 1   
    21    11    12 1   
    22    11    46 1   
    23    11    47 1   
    24    12    48 1   
    25    13    15 ar  
    26    13    17 ar  
    27    13    75 1   
    28    14    16 ar  
    29    14    18 ar  
    30    14    49 1   
    31    15    19 ar  
    32    15    50 1   
    33    16    20 ar  
    34    16    51 1   
    35    17    31 ar  
    36    17    52 1   
    37    18    32 ar  
    38    18    53 1   
    39    19    33 ar  
    40    19    54 1   
    41    20    34 ar  
    42    20    55 1   
    43    21    22 2   
    44    21    31 1   
    45    21    56 1   
    46    22    32 1   
    47    22    57 1   
    48    23    30 1   
    49    23    58 1   
    50    23    59 1   
    51    23    74 1   
    52    24    25 1   
    53    24    60 1   
    54    24    61 1   
    55    25    36 1   
    56    25    62 1   
    57    25    63 1   
    58    26    28 1   
    59    26    35 1   
    60    26    64 1   
    61    26    65 1   
    62    27    29 1   
    63    27    35 1   
    64    27    66 1   
    65    27    67 1   
    66    28    36 1   
    67    28    68 1   
    68    28    69 1   
    69    29    36 1   
    70    29    70 1   
    71    29    71 1   
    72    30    37 1   
    73    30    72 1   
    74    30    73 1   
    75    31    33 ar  
    76    32    34 ar  
    77    33    37 1   
    78    34    37 1   
    79    35    74 1   
    80    74    76 1   
    81    74    77 1   
@<TRIPOS>SUBSTRUCTURE
     1 GOI         1 TEMP              0 ****  ****    0 ROOT
