@<TRIPOS>MOLECULE
molecule
   18    18     1     0     0
SMALL
bcc


@<TRIPOS>ATOM
      1 N1           0.0000     0.0000     0.0000 na         1 GOJ      -0.031600
      2 C4           0.5920     0.0080     2.1190 cc         1 GOJ       0.380200
      3 C5           1.3430     0.0000     0.0000 cd         1 GOJ      -0.042300
      4 N           -0.4440     0.0050     1.3270 nd         1 GOJ      -0.517800
      5 C            4.8930     0.0170     5.0480 c3         1 GOJ      -0.096100
      6 O            3.4050     0.0080     3.1200 os         1 GOJ      -0.429900
      7 C1           4.8010     0.0070     3.5210 c3         1 GOJ       0.149400
      8 C3           1.7550     0.0000     1.3180 cc         1 GOJ      -0.360900
      9 O1           4.0660    -0.0080     1.0010 o          1 GOJ      -0.568000
     10 H1          -0.5850    -0.0010    -0.8120 hn         1 GOJ       0.336700
     11 H2           0.5650     0.0110     3.2020 h4         1 GOJ       0.065100
     12 H3           1.9840    -0.0040    -0.8730 h4         1 GOJ       0.192000
     13 H4           4.4030    -0.8640     5.4450 hc         1 GOJ       0.046700
     14 H5           5.9350     0.0160     5.3470 hc         1 GOJ       0.046700
     15 H6           4.4080     0.9050     5.4330 hc         1 GOJ       0.046700
     16 H7           5.2910     0.8870     3.1240 h1         1 GOJ       0.048700
     17 H8           5.2860    -0.8820     3.1350 h1         1 GOJ       0.048700
     18 C2           3.1490    -0.0010     1.7980 c          1 GOJ       0.685700
@<TRIPOS>BOND
     1     4     1 1
     2     4     2 2
     3     1     3 1
     4     2     8 1
     5     3     8 2
     6     8    18 1
     7     6    18 1
     8     6     7 1
     9    18     9 2
    10     7     5 1
    11     1    10 1
    12     2    11 1
    13     3    12 1
    14     5    13 1
    15     5    14 1
    16     5    15 1
    17     7    16 1
    18     7    17 1
@<TRIPOS>SUBSTRUCTURE
     1 GOJ         1 TEMP              0 ****  ****    0 ROOT
