@<TRIPOS>MOLECULE
GOK
   55    58     1     0     0
SMALL
bcc


@<TRIPOS>ATOM
      1 N1           0.0000     0.0000     0.0000 ns         1 GOK      -0.058400
      2 O3           1.9560     0.0020     1.0530 o          1 GOK      -0.618100
      3 C5           3.4280     0.0090    -3.6000 ca         1 GOK       0.724900
      4 C8           2.0860     0.0010    -1.2780 ca         1 GOK      -0.447200
      5 C9           3.4880     0.0010    -1.2990 ca         1 GOK       0.511700
      6 C14          3.1930     0.0200    -5.9360 c3         1 GOK       0.141300
      7 N15          4.1180     0.0090    -4.7940 nh         1 GOK      -0.431300
      8 C16          5.0400    -1.1310    -4.8690 c3         1 GOK       0.141300
      9 C34          3.2560    -0.3960   -13.8650 ca         1 GOK      -0.211200
     10 C2           1.3480     0.0000     0.0000 c          1 GOK       0.612700
     11 O4          -0.7070     0.0000     1.2260 oh         1 GOK      -0.434100
     12 N6           2.1010     0.0150    -3.6230 nb         1 GOK      -0.667000
     13 C7           1.4050     0.0100    -2.5010 ca         1 GOK       0.511700
     14 N10          4.1090     0.0010    -2.4620 nb         1 GOK      -0.667000
     15 C13          3.9880     0.1660    -7.2360 c3         1 GOK      -0.025900
     16 C17          5.8890    -1.0200    -6.1370 c3         1 GOK      -0.025900
     17 C18          4.9710    -1.0030    -7.3610 c3         1 GOK      -0.055700
     18 C27          5.8100    -0.8310    -8.6280 c3         1 GOK       0.144800
     19 N29          4.9420    -0.9330    -9.8090 n7         1 GOK      -0.584200
     20 C30          5.7160    -0.7730   -11.0470 c3         1 GOK       0.243000
     21 C31          4.7940    -0.8840   -12.2340 cc         1 GOK      -0.156400
     22 N32          3.7020    -1.6930   -13.9890 na         1 GOK       0.392600
     23 C33          4.6170    -1.9650   -13.0090 cd         1 GOK      -0.249100
     24 C35          3.9250     0.1690   -12.7640 ca         1 GOK      -0.081800
     25 C36          3.6690     1.4930   -12.3980 ca         1 GOK      -0.037000
     26 C37          2.7760     2.2340   -13.1180 ca         1 GOK      -0.135000
     27 C38          2.1200     1.6830   -14.2100 ca         1 GOK      -0.085000
     28 C39          2.3450     0.3760   -14.5790 ca         1 GOK      -0.106000
     29 C44          3.2620    -2.6400   -15.0160 c3         1 GOK      -0.005400
     30 H1          -0.5000     0.0270    -0.8660 hn         1 GOK       0.158500
     31 H2           4.0510    -0.0060    -0.3740 h4         1 GOK      -0.007400
     32 H4           2.6360    -0.9090    -5.9570 h1         1 GOK       0.026700
     33 H5           4.4710    -2.0520    -4.8970 h1         1 GOK       0.026700
     34 H6           5.6880    -1.1260    -4.0010 h1         1 GOK       0.026700
     35 H7          -1.6250    -0.1360     1.0590 ho         1 GOK       0.393000
     36 H8           0.3220     0.0120    -2.5270 h4         1 GOK      -0.007400
     37 H9           4.5380     1.0990    -7.2190 hc         1 GOK       0.029450
     38 H10          3.3070     0.1560    -8.0780 hc         1 GOK       0.029450
     39 H11          6.4650    -0.1030    -6.1060 hc         1 GOK       0.029450
     40 H12          6.5560    -1.8710    -6.1990 hc         1 GOK       0.029450
     41 H13          4.4190    -1.9340    -7.4110 hc         1 GOK       0.026700
     42 H14          6.5670    -1.6050    -8.6680 h1         1 GOK       0.008700
     43 H15          6.2890     0.1410    -8.6150 h1         1 GOK       0.008700
     44 H16          4.4880    -1.8250    -9.8120 hn         1 GOK       0.253800
     45 H18          6.4720    -1.5460   -11.1030 h1         1 GOK       0.005200
     46 H19          6.1930     0.2000   -11.0510 h1         1 GOK       0.005200
     47 H20          5.1250    -2.9130   -12.8780 h4         1 GOK       0.138000
     48 H21          4.1770     1.9290   -11.5460 ha         1 GOK       0.105000
     49 H22          2.5880     3.2650   -12.8410 ha         1 GOK       0.102000
     50 H23          1.4150     2.2850   -14.7710 ha         1 GOK       0.099000
     51 H24          1.8280    -0.0450   -15.4330 ha         1 GOK       0.099000
     52 H25          3.7730    -3.5850   -14.8790 h1         1 GOK       0.017033
     53 H26          3.4950    -2.2430   -15.9970 h1         1 GOK       0.017033
     54 H27          2.1930    -2.7920   -14.9330 h1         1 GOK       0.017033
     55 H3           2.5100     0.8550    -5.8370 h1         1 GOK       0.026700
@<TRIPOS>BOND
     1     1    10 1   
     2     1    11 1   
     3     1    30 1   
     4     2    10 2   
     5     3     7 1   
     6     3    12 ar  
     7     3    14 ar  
     8     4     5 ar  
     9     4    10 1   
    10     4    13 ar  
    11     5    14 ar  
    12     5    31 1   
    13     6     7 1   
    14     6    15 1   
    15     6    32 1   
    16     6    55 1   
    17     7     8 1   
    18     8    16 1   
    19     8    33 1   
    20     8    34 1   
    21     9    22 1   
    22     9    24 ar  
    23     9    28 ar  
    24    11    35 1   
    25    12    13 ar  
    26    13    36 1   
    27    15    17 1   
    28    15    37 1   
    29    15    38 1   
    30    16    17 1   
    31    16    39 1   
    32    16    40 1   
    33    17    18 1   
    34    17    41 1   
    35    18    19 1   
    36    18    42 1   
    37    18    43 1   
    38    19    20 1   
    39    19    44 1   
    40    20    21 1   
    41    20    45 1   
    42    20    46 1   
    43    21    23 2   
    44    21    24 1   
    45    22    23 1   
    46    22    29 1   
    47    23    47 1   
    48    24    25 ar  
    49    25    26 ar  
    50    25    48 1   
    51    26    27 ar  
    52    26    49 1   
    53    27    28 ar  
    54    27    50 1   
    55    28    51 1   
    56    29    52 1   
    57    29    53 1   
    58    29    54 1   
@<TRIPOS>SUBSTRUCTURE
     1 GOK         1 TEMP              0 ****  ****    0 ROOT
