@<TRIPOS>MOLECULE
GOL
   14    13     1     0     0
SMALL
bcc


@<TRIPOS>ATOM
      1 C1         -0.0070   -0.0190    0.0660 c3        1 GOL      0.115900
      2 O1          1.3880    0.1080    0.2910 oh        1 GOL     -0.603800
      3 C2         -0.6510   -0.1450    1.4480 c3        1 GOL      0.100100
      4 O2         -0.3970    1.0110    2.2320 oh        1 GOL     -0.612800
      5 C3         -2.1730   -0.2530    1.3230 c3        1 GOL      0.115900
      6 O3         -2.7740   -0.4550    2.5830 oh        1 GOL     -0.603800
      7 H11        -0.3980    0.8880   -0.4650 h1        1 GOL      0.043450
      8 H12        -0.2180   -0.9350   -0.5450 h1        1 GOL      0.043450
      9 HO1         1.7970    0.2600   -0.5680 ho        1 GOL      0.414000
     10 H2         -0.2380   -1.0490    1.9790 h1        1 GOL      0.061700
     11 HO2         0.5620    1.1260    2.2550 ho        1 GOL      0.425000
     12 H31        -2.5830    0.6750    0.8420 h1        1 GOL      0.043450
     13 H32        -2.4470   -1.1570    0.7170 h1        1 GOL      0.043450
     14 HO3        -2.4800    0.2670    3.1550 ho        1 GOL      0.414000
@<TRIPOS>BOND
     1    1    2 1   
     2    1    3 1   
     3    1    7 1   
     4    1    8 1   
     5    2    9 1   
     6    3    4 1   
     7    3    5 1   
     8    3   10 1   
     9    4   11 1   
    10    5    6 1   
    11    5   12 1   
    12    5   13 1   
    13    6   14 1   
@<TRIPOS>SUBSTRUCTURE
     1 GOL         1 TEMP              0 ****  ****    0 ROOT
