@<TRIPOS>MOLECULE
molecule
   25    25     1     0     0
SMALL
bcc


@<TRIPOS>ATOM
      1 C7           0.0000     0.0000     0.0000 c3         1 GOO       0.121700
      2 O6           1.4300     0.0000     0.0000 os         1 GOO      -0.418600
      3 C1           2.0100     0.0000     1.3060 c3         1 GOO       0.110100
      4 C2           2.2910    -1.4480     1.7600 c3         1 GOO       0.120100
      5 O2           2.0970    -1.5750     3.1700 oh         1 GOO      -0.574800
      6 C3           3.7770    -1.6800     1.3930 c3         1 GOO       0.135100
      7 O3           4.3440    -2.7120     2.2020 oh         1 GOO      -0.554800
      8 C4           4.4270    -0.3100     1.7170 c3         1 GOO       0.116100
      9 O4           4.6850    -0.1990     3.1160 oh         1 GOO      -0.587800
     10 C5           3.3680     0.7230     1.2780 c3         1 GOO       0.090500
     11 N5           3.3550     1.8560     2.2140 nz         1 GOO      -0.797600
     12 H7          -0.3610     0.4680     0.9080 h1         1 GOO       0.052033
     13 H7A         -0.3610     0.5520    -0.8590 h1         1 GOO       0.052033
     14 H7B         -0.3610    -1.0200    -0.0490 h1         1 GOO       0.052033
     15 H1           1.3480     0.4860     2.0120 h1         1 GOO       0.062700
     16 H2           1.6570    -2.1410     1.2200 h1         1 GOO       0.079700
     17 HO2          1.4560    -2.2460     3.3390 ho         1 GOO       0.428000
     18 H3           3.8780    -1.9100     0.3390 h1         1 GOO       0.073700
     19 HO3          4.6890    -3.3930     1.6480 ho         1 GOO       0.419000
     20 H4           5.3380    -0.1810     1.1460 h1         1 GOO       0.070700
     21 HO4          5.6170    -0.1820     3.2640 ho         1 GOO       0.437000
     22 H5           3.5830     1.0670     0.2730 hx         1 GOO       0.131700
     23 HN5          4.2700     2.2570     2.2660 hn         1 GOO       0.460467
     24 HN5A         2.7060     2.5470     1.8920 hn         1 GOO       0.460467
     25 H53          3.0780     1.5360     3.1210 hn         1 GOO       0.460467
@<TRIPOS>BOND
     1     1     2 1
     2     1    12 1
     3     1    13 1
     4     1    14 1
     5     2     3 1
     6     4     3 1
     7     3    10 1
     8     3    15 1
     9     5     4 1
    10     4     6 1
    11     4    16 1
    12     5    17 1
    13     7     6 1
    14     6     8 1
    15     6    18 1
    16     7    19 1
    17    10     8 1
    18     8     9 1
    19     8    20 1
    20     9    21 1
    21    10    11 1
    22    10    22 1
    23    11    23 1
    24    11    24 1
    25    25    11 1
@<TRIPOS>SUBSTRUCTURE
     1 GOO         1 TEMP              0 ****  ****    0 ROOT
