@<TRIPOS>MOLECULE
molecule
   43    42     1     0     0
SMALL
bcc


@<TRIPOS>ATOM
      1 OAN          0.0000     0.0000     0.0000 oh         1 GOP      -0.611800
      2 CAM          1.4290     0.0000     0.0000 c3         1 GOP       0.115400
      3 CAL          1.9400     0.0000     1.4410 c3         1 GOP       0.122100
      4 OAT          1.5620    -1.2220     2.0800 oh         1 GOP      -0.616800
      5 CAK          3.4650     0.1260     1.4420 c3         1 GOP       0.139100
      6 OAS          3.8420     1.3460     0.8030 oh         1 GOP      -0.550800
      7 CAJ          3.9760     0.1260     2.8840 c3         1 GOP       0.152100
      8 OAR          3.3190     1.1570     3.6220 oh         1 GOP      -0.562800
      9 CAI          5.4860     0.3750     2.8910 c3         1 GOP       0.143100
     10 OAQ          5.7700     1.5860     2.1850 oh         1 GOP      -0.550800
     11 CAH          5.9760     0.5000     4.3340 c3         1 GOP       0.140800
     12 N            7.4250     0.7400     4.3400 n7         1 GOP      -0.861200
     13 CA           7.9320     0.8660     5.7140 c3         1 GOP       0.050500
     14 C            7.7600     2.2870     6.1850 c          1 GOP       0.863600
     15 O            8.1560     2.6360     7.4190 o          1 GOP      -0.812800
     16 CB           9.4160     0.4950     5.7450 c3         1 GOP      -0.039400
     17 CG           9.5800    -0.9840     5.3860 c3         1 GOP      -0.157400
     18 CD          11.0410    -1.3500     5.4160 c          1 GOP       0.461100
     19 OE1         11.8710    -0.5100     5.6980 o          1 GOP      -0.396100
     20 NE2         11.4270    -2.6090     5.1300 nz         1 GOP      -0.688400
     21 OXT          7.2650     3.1110     5.4530 o          1 GOP      -0.812800
     22 H1          -0.3140     0.1040    -0.8830 ho         1 GOP       0.403000
     23 H2           1.7900     0.8850    -0.5110 h1         1 GOP       0.028200
     24 H3           1.7900    -0.8840    -0.5110 h1         1 GOP       0.028200
     25 H4           1.5090     0.8370     1.9780 h1         1 GOP       0.077700
     26 H5           0.7580    -1.0920     2.5560 ho         1 GOP       0.415000
     27 H6           3.8960    -0.7110     0.9060 h1         1 GOP       0.030700
     28 H7           4.0610     1.1750    -0.0980 ho         1 GOP       0.384000
     29 H8           3.7670    -0.8340     3.3410 h1         1 GOP       0.045700
     30 H9           2.7870     0.7710     4.2980 ho         1 GOP       0.392000
     31 H10          5.9910    -0.4520     2.4080 h1         1 GOP       0.012700
     32 H11          6.5290     1.4600     1.6380 ho         1 GOP       0.383000
     33 H12          5.4700     1.3280     4.8170 h1         1 GOP       0.053700
     34 H13          5.7600    -0.4170     4.8690 h1         1 GOP       0.053700
     35 H14          7.6270     1.5790     3.8330 hn         1 GOP       0.388800
     36 H16          7.3800     0.1990     6.3650 h1         1 GOP       0.049700
     37 H17          9.8120     0.6710     6.7370 hc         1 GOP       0.075200
     38 H18          9.9550     1.1020     5.0270 hc         1 GOP       0.075200
     39 H19          9.0410    -1.5920     6.1030 hc         1 GOP       0.091200
     40 H20          9.1840    -1.1610     4.3930 hc         1 GOP       0.091200
     41 H21         12.4270    -2.6540     5.1070 hn         1 GOP       0.465133
     42 H22         11.0810    -3.2310     5.8330 hn         1 GOP       0.465133
     43 HE23        11.0600    -2.8760     4.2380 hn         1 GOP       0.465133
@<TRIPOS>BOND
     1    15    14 1
     2    16    13 1
     3    16    17 1
     4    13    14 1
     5    13    12 1
     6    14    21 1
     7    20    18 1
     8    11    12 1
     9    11     9 1
    10    17    18 1
    11    18    19 2
    12     8     7 1
    13     7     9 1
    14     7     5 1
    15     9    10 1
    16     6     5 1
    17     5     3 1
    18     4     3 1
    19     3     2 1
    20     2     1 1
    21     1    22 1
    22     2    23 1
    23     2    24 1
    24     3    25 1
    25     4    26 1
    26     5    27 1
    27     6    28 1
    28     7    29 1
    29     8    30 1
    30     9    31 1
    31    10    32 1
    32    11    33 1
    33    11    34 1
    34    12    35 1
    35    13    36 1
    36    16    37 1
    37    16    38 1
    38    17    39 1
    39    17    40 1
    40    20    41 1
    41    20    42 1
    42    43    20 1
@<TRIPOS>SUBSTRUCTURE
     1 GOP         1 TEMP              0 ****  ****    0 ROOT
