@<TRIPOS>MOLECULE
molecule
   32    31     1     0     0
SMALL
bcc


@<TRIPOS>ATOM
      1 C1           0.0000     0.0000     0.0000 c3         1 GOS       0.198900
      2 C2           1.5310     0.0000     0.0000 c3         1 GOS       0.118100
      3 C3           2.0410     0.0000     1.4420 c3         1 GOS       0.145600
      4 C4           3.5660    -0.1250     1.4430 c3         1 GOS       0.145600
      5 C5           4.0660    -0.2520     2.8830 c3         1 GOS       0.118100
      6 C6           5.5910    -0.3770     2.8850 c3         1 GOS       0.198900
      7 O1          -0.4760     0.1170    -1.3420 os         1 GOS      -0.591700
      8 O11         -2.7130    -1.2640    -1.3400 o          1 GOS      -0.926167
      9 O12         -2.7090     1.2310    -0.9570 o          1 GOS      -0.926167
     10 O13         -2.2100     0.4220    -3.2940 o          1 GOS      -0.926167
     11 O2           2.0070    -1.1670    -0.6740 oh         1 GOS      -0.605300
     12 O3           1.4720    -1.1040     2.1490 oh         1 GOS      -0.568800
     13 O4           3.9490    -1.2870     0.7020 oh         1 GOS      -0.568800
     14 O5           3.6830     0.9100     3.6240 oh         1 GOS      -0.605300
     15 O6           6.0480    -0.6100     4.2180 os         1 GOS      -0.591700
     16 O61          8.3690     0.3740     4.1030 o          1 GOS      -0.926167
     17 O62          7.7620    -0.9080     6.1910 o          1 GOS      -0.926167
     18 O63          8.1680    -2.1330     3.9000 o          1 GOS      -0.926167
     19 P1          -2.0410     0.1510    -1.7170 p5         1 GOS       1.208400
     20 P6           7.6040    -0.7940     4.5930 p5         1 GOS       1.208400
     21 H12         -0.3610    -0.9260     0.4320 h1         1 GOS       0.017700
     22 H11         -0.3610     0.8370     0.5860 h1         1 GOS       0.017700
     23 H21          1.8920     0.8840    -0.5110 h1         1 GOS       0.036200
     24 H31          1.7540     0.9250     1.9270 h1         1 GOS       0.031700
     25 H41          4.0020     0.7550     0.9860 h1         1 GOS       0.031700
     26 H51          3.6310    -1.1320     3.3410 h1         1 GOS       0.036200
     27 H61          6.0290     0.5390     2.5080 h1         1 GOS       0.017700
     28 H62          5.8860    -1.2050     2.2520 h1         1 GOS       0.017700
     29 H22          2.0930    -0.9840    -1.5950 ho         1 GOS       0.392500
     30 H32          0.8770    -0.7840     2.8070 ho         1 GOS       0.377500
     31 H42          4.6670    -1.0720     0.1310 ho         1 GOS       0.377500
     32 H52          3.4910     0.6660     4.5140 ho         1 GOS       0.392500
@<TRIPOS>BOND
     1    16    20 1
     2    17    20 1
     3    20    18 1
     4    20    15 1
     5    15     6 1
     6     6     5 1
     7     9    19 1
     8    14     5 1
     9     8    19 1
    10     5     4 1
    11    13     4 1
    12     4     3 1
    13    19     7 1
    14    19    10 1
    15     7     1 1
    16     1     2 1
    17     3     2 1
    18     3    12 1
    19     2    11 1
    20     1    21 1
    21     1    22 1
    22     2    23 1
    23     3    24 1
    24     4    25 1
    25     5    26 1
    26     6    27 1
    27     6    28 1
    28    11    29 1
    29    12    30 1
    30    13    31 1
    31    14    32 1
@<TRIPOS>SUBSTRUCTURE
     1 GOS         1 TEMP              0 ****  ****    0 ROOT
