@<TRIPOS>MOLECULE
molecule
   34    35     1     0     0
SMALL
bcc


@<TRIPOS>ATOM
      1 O14          0.0000     0.0000     0.0000 o          1 GOW      -0.582100
      2 C13          1.2170     0.0000     0.0000 c          1 GOW       0.673700
      3 C15          1.9560     0.0000     1.2790 ca         1 GOW      -0.151600
      4 C20          1.2600     0.0000     2.4900 ca         1 GOW      -0.083500
      5 C19          1.9570    -0.0000     3.6820 ca         1 GOW      -0.137000
      6 C18          3.3400    -0.0010     3.6780 ca         1 GOW      -0.102000
      7 C17          4.0350    -0.0000     2.4810 ca         1 GOW      -0.137000
      8 C16          3.3510    -0.0070     1.2830 ca         1 GOW      -0.083500
      9 N12          1.8900    -0.0070    -1.1670 ns         1 GOW      -0.471100
     10 C11          1.1950    -0.1290    -2.3750 ca         1 GOW       0.054600
     11 C02          1.7540     0.3590    -3.5500 ca         1 GOW      -0.101300
     12 C01          3.1060     1.0230    -3.5200 c3         1 GOW      -0.050800
     13 C10         -0.0480    -0.7420    -2.4010 ca         1 GOW      -0.072000
     14 C05         -0.7360    -0.8620    -3.6070 ca         1 GOW      -0.124600
     15 C04         -0.1690    -0.3640    -4.7820 ca         1 GOW      -0.130000
     16 C03          1.0730     0.2350    -4.7480 ca         1 GOW      -0.116000
     17 C06         -2.0630    -1.5140    -3.6430 c          1 GOW       0.687700
     18 O07         -2.5550    -1.9480    -2.6200 o          1 GOW      -0.565100
     19 N08         -2.7270    -1.6290    -4.8110 ns         1 GOW      -0.474400
     20 O09         -3.9960    -2.2550    -4.8460 oh         1 GOW      -0.360100
     21 H1           0.1770     0.0000     2.4950 ha         1 GOW       0.141000
     22 H2           1.4190    -0.0010     4.6220 ha         1 GOW       0.136500
     23 H3           3.8820     0.0020     4.6160 ha         1 GOW       0.134000
     24 H4           5.1180    -0.0030     2.4850 ha         1 GOW       0.136500
     25 H5           3.8960    -0.0060     0.3470 ha         1 GOW       0.141000
     26 H6           2.8900     0.0390    -1.1680 hn         1 GOW       0.328500
     27 H7           3.8560     0.3020    -3.2190 hc         1 GOW       0.045033
     28 H8           3.0890     1.8440    -2.8120 hc         1 GOW       0.045033
     29 H9           3.3440     1.4020    -4.5070 hc         1 GOW       0.045033
     30 H10         -0.4840    -1.1260    -1.4860 ha         1 GOW       0.201000
     31 H11         -0.7000    -0.4570    -5.7220 ha         1 GOW       0.120000
     32 H12          1.5130     0.6190    -5.6610 ha         1 GOW       0.135000
     33 H13         -2.3250    -1.2670    -5.6530 hn         1 GOW       0.319500
     34 H14         -4.3210    -2.2590    -5.7310 ho         1 GOW       0.397000
@<TRIPOS>BOND
     1    16    15 ar
     2    16    11 ar
     3    15    14 ar
     4    12    11 1
     5    11    10 ar
     6    19    20 1
     7    19    17 1
     8    14    17 1
     9    14    13 ar
    10    17    18 2
    11    10    13 ar
    12    10     9 1
    13     1     2 2
    14     9     2 1
    15     2     3 1
    16     3     4 ar
    17     3     8 ar
    18     4     5 ar
    19     8     7 ar
    20     5     6 ar
    21     7     6 ar
    22     4    21 1
    23     5    22 1
    24     6    23 1
    25     7    24 1
    26     8    25 1
    27     9    26 1
    28    12    27 1
    29    12    28 1
    30    12    29 1
    31    13    30 1
    32    15    31 1
    33    16    32 1
    34    19    33 1
    35    20    34 1
@<TRIPOS>SUBSTRUCTURE
     1 GOW         1 TEMP              0 ****  ****    0 ROOT
