@<TRIPOS>MOLECULE
GOW
   34    35     1     0     0
SMALL
bcc


@<TRIPOS>ATOM
      1 O14          0.0000     0.0000     0.0000 o          1 GOW      -0.621100
      2 C13          1.2170     0.0000     0.0000 c          1 GOW       0.583700
      3 C15          1.9560     0.0000     1.2790 ca         1 GOW      -0.164600
      4 C20          1.2600     0.0000     2.4900 ca         1 GOW      -0.056500
      5 C19          1.9570    -0.0000     3.6820 ca         1 GOW      -0.110500
      6 C18          3.3400    -0.0010     3.6780 ca         1 GOW      -0.074000
      7 C17          4.0350    -0.0000     2.4810 ca         1 GOW      -0.110500
      8 C16          3.3510    -0.0070     1.2830 ca         1 GOW      -0.056500
      9 N12          1.8900    -0.0070    -1.1670 ns         1 GOW      -0.034100
     10 C11          1.1950    -0.1290    -2.3750 ca         1 GOW      -0.091400
     11 C02          1.7540     0.3590    -3.5500 ca         1 GOW      -0.109300
     12 C01          3.1060     1.0230    -3.5200 c3         1 GOW       0.061200
     13 C10         -0.0480    -0.7420    -2.4010 ca         1 GOW      -0.049000
     14 C05         -0.7360    -0.8620    -3.6070 ca         1 GOW      -0.134600
     15 C04         -0.1690    -0.3640    -4.7820 ca         1 GOW      -0.107000
     16 C03          1.0730     0.2350    -4.7480 ca         1 GOW      -0.088000
     17 C06         -2.0630    -1.5140    -3.6430 c          1 GOW       0.594700
     18 O07         -2.5550    -1.9480    -2.6200 o          1 GOW      -0.609100
     19 N08         -2.7270    -1.6290    -4.8110 ns         1 GOW      -0.066400
     20 O09         -3.9960    -2.2550    -4.8460 oh         1 GOW      -0.437100
     21 H1           0.1770     0.0000     2.4950 ha         1 GOW       0.114000
     22 H2           1.4190    -0.0010     4.6220 ha         1 GOW       0.107000
     23 H3           3.8820     0.0020     4.6160 ha         1 GOW       0.103000
     24 H4           5.1180    -0.0030     2.4850 ha         1 GOW       0.107000
     25 H5           3.8960    -0.0060     0.3470 ha         1 GOW       0.114000
     26 H6           2.8900     0.0390    -1.1680 hn         1 GOW       0.177500
     27 H7           3.8560     0.3020    -3.2190 hc         1 GOW       0.009033
     28 H8           3.0890     1.8440    -2.8120 hc         1 GOW       0.009033
     29 H9           3.3440     1.4020    -4.5070 hc         1 GOW       0.009033
     30 H10         -0.4840    -1.1260    -1.4860 ha         1 GOW       0.179000
     31 H11         -0.7000    -0.4570    -5.7220 ha         1 GOW       0.097000
     32 H12          1.5130     0.6190    -5.6610 ha         1 GOW       0.107000
     33 H13         -2.3250    -1.2670    -5.6530 hn         1 GOW       0.159500
     34 H14         -4.3210    -2.2590    -5.7310 ho         1 GOW       0.390000
@<TRIPOS>BOND
     1     1     2 2   
     2     2     3 1   
     3     2     9 1   
     4     3     4 ar  
     5     3     8 ar  
     6     4     5 ar  
     7     4    21 1   
     8     5     6 ar  
     9     5    22 1   
    10     6     7 ar  
    11     6    23 1   
    12     7     8 ar  
    13     7    24 1   
    14     8    25 1   
    15     9    10 1   
    16     9    26 1   
    17    10    11 ar  
    18    10    13 ar  
    19    11    12 1   
    20    11    16 ar  
    21    12    27 1   
    22    12    28 1   
    23    12    29 1   
    24    13    14 ar  
    25    13    30 1   
    26    14    15 ar  
    27    14    17 1   
    28    15    16 ar  
    29    15    31 1   
    30    16    32 1   
    31    17    18 2   
    32    17    19 1   
    33    19    20 1   
    34    19    33 1   
    35    20    34 1   
@<TRIPOS>SUBSTRUCTURE
     1 GOW         1 TEMP              0 ****  ****    0 ROOT
