@<TRIPOS>MOLECULE
GOX
   25    25     1     0     0
SMALL
bcc


@<TRIPOS>ATOM
      1 C1           0.0000     0.0000     0.0000 c2         1 GOX       0.450200
      2 N1          -0.6720     0.8130    -0.7460 n2         1 GOX      -0.479200
      3 C2           1.5130     0.0000     0.0000 c3         1 GOX       0.151800
      4 N5          -0.6390    -0.9040     0.8380 nu         1 GOX      -0.504200
      5 O7          -2.0870     0.7890    -0.7240 oh         1 GOX      -0.362500
      6 O2           1.9950    -1.1680    -0.6680 oh         1 GOX      -0.549800
      7 C3           1.9980     0.0000     1.4550 c3         1 GOX       0.161100
      8 O3           1.6110     1.2220     2.0860 oh         1 GOX      -0.572800
      9 C4           1.3670    -1.1800     2.1980 c3         1 GOX       0.169100
     10 O4           1.7070    -2.3990     1.5310 oh         1 GOX      -0.548800
     11 C5          -0.1520    -1.0120     2.2220 c3         1 GOX       0.134500
     12 C6          -0.5150     0.2570     2.9940 c3         1 GOX       0.177400
     13 O6          -1.9340     0.3330     3.1440 oh         1 GOX      -0.586800
     14 HC2          1.8760     0.8880    -0.5030 h1         1 GOX       0.016700
     15 HN5         -1.4040    -1.4610     0.5130 hn         1 GOX       0.309800
     16 HO7         -2.4210     1.2990    -1.4430 ho         1 GOX       0.407000
     17 HO2          2.3830    -0.9220    -1.4910 ho         1 GOX       0.385000
     18 HC3          3.0770    -0.0970     1.4750 h1         1 GOX       0.011700
     19 HO3          2.3700     1.7690     2.2050 ho         1 GOX       0.387000
     20 HC4          1.7410    -1.2040     3.2140 h1         1 GOX       0.003700
     21 HO4          2.0750    -3.0050     2.1530 ho         1 GOX       0.381000
     22 HC5         -0.6030    -1.8740     2.6970 h1         1 GOX       0.037700
     23 HC61        -0.1630     1.1250     2.4500 h1         1 GOX       0.018200
     24 HC62        -0.0500     0.2300     3.9720 h1         1 GOX       0.018200
     25 HO6         -2.1420     0.7900     3.9420 ho         1 GOX       0.385000
@<TRIPOS>BOND
     1     1     2 2   
     2     1     3 1   
     3     1     4 1   
     4     2     5 1   
     5     3     6 1   
     6     3     7 1   
     7     3    14 1   
     8     4    11 1   
     9     4    15 1   
    10     5    16 1   
    11     6    17 1   
    12     7     8 1   
    13     7     9 1   
    14     7    18 1   
    15     8    19 1   
    16     9    10 1   
    17     9    11 1   
    18     9    20 1   
    19    10    21 1   
    20    11    12 1   
    21    11    22 1   
    22    12    13 1   
    23    12    23 1   
    24    12    24 1   
    25    13    25 1   
@<TRIPOS>SUBSTRUCTURE
     1 GOX         1 TEMP              0 ****  ****    0 ROOT
