@<TRIPOS>MOLECULE
GOY
   34    35     1     0     0
SMALL
bcc


@<TRIPOS>ATOM
      1 N1           0.0000     0.0000     0.0000 n          1 GOY      -0.221800
      2 C4          -3.3650     1.4200    -2.9360 c3         1 GOY      -0.043400
      3 C5          -0.6870     0.9340    -0.6870 c          1 GOY       0.642100
      4 C6           1.4690     0.0000     0.0000 c3         1 GOY       0.067750
      5 C7           1.9620     0.0000     1.4490 c3         1 GOY      -0.043400
      6 C8           1.3350    -1.1790     2.1980 c3         1 GOY      -0.023900
      7 C10         -0.7060    -1.0350     0.7690 c3         1 GOY       0.067750
      8 N           -1.3760     0.5870    -1.7920 n          1 GOY      -0.221800
      9 C           -3.6330    -0.0180    -3.3870 c3         1 GOY      -0.023900
     10 O           -0.6870     2.0900    -0.3100 o          1 GOY      -0.658100
     11 C1          -3.1680    -0.9900    -2.3020 c3         1 GOY      -0.043400
     12 C2          -1.6600    -0.8250    -2.0850 c3         1 GOY       0.067750
     13 C3          -1.8590     1.6120    -2.7260 c3         1 GOY       0.067750
     14 C9          -0.1890    -1.0260     2.2060 c3         1 GOY      -0.043400
     15 H2          -3.7140     2.1070    -3.6970 hc         1 GOY       0.022075
     16 H3           1.8310    -0.8870    -0.5060 h1         1 GOY       0.021950
     17 H4           1.8310     0.8870    -0.5060 h1         1 GOY       0.021950
     18 H5           1.6720     0.9270     1.9290 hc         1 GOY       0.022075
     19 H6           3.0410    -0.0980     1.4630 hc         1 GOY       0.022075
     20 H7           1.6010    -2.1030     1.7010 hc         1 GOY       0.014200
     21 H8           1.7000    -1.1930     3.2180 hc         1 GOY       0.014200
     22 H9          -0.5210    -2.0050     0.3240 h1         1 GOY       0.021950
     23 H10         -1.7690    -0.8250     0.7660 h1         1 GOY       0.021950
     24 H11         -4.6940    -0.1500    -3.5570 hc         1 GOY       0.014200
     25 H12         -3.0880    -0.2150    -4.3030 hc         1 GOY       0.014200
     26 H13         -3.6900    -0.7750    -1.3780 hc         1 GOY       0.022075
     27 H14         -3.3780    -2.0060    -2.6140 hc         1 GOY       0.022075
     28 H15         -1.3450    -1.4390    -1.2500 h1         1 GOY       0.021950
     29 H16         -1.1310    -1.1220    -2.9820 h1         1 GOY       0.021950
     30 H17         -1.3450     1.5090    -3.6740 h1         1 GOY       0.021950
     31 H18         -1.6740     2.5960    -2.3120 h1         1 GOY       0.021950
     32 H19         -0.4540    -0.0880     2.6790 hc         1 GOY       0.022075
     33 H20         -0.6300    -1.8510     2.7530 hc         1 GOY       0.022075
     34 H1          -3.8860     1.6080    -2.0050 hc         1 GOY       0.022075
@<TRIPOS>BOND
     1     1     3 1   
     2     1     4 1   
     3     1     7 1   
     4     2     9 1   
     5     2    13 1   
     6     2    15 1   
     7     2    34 1   
     8     3     8 1   
     9     3    10 2   
    10     4     5 1   
    11     4    16 1   
    12     4    17 1   
    13     5     6 1   
    14     5    18 1   
    15     5    19 1   
    16     6    14 1   
    17     6    20 1   
    18     6    21 1   
    19     7    14 1   
    20     7    22 1   
    21     7    23 1   
    22     8    12 1   
    23     8    13 1   
    24     9    11 1   
    25     9    24 1   
    26     9    25 1   
    27    11    12 1   
    28    11    26 1   
    29    11    27 1   
    30    12    28 1   
    31    12    29 1   
    32    13    30 1   
    33    13    31 1   
    34    14    32 1   
    35    14    33 1   
@<TRIPOS>SUBSTRUCTURE
     1 GOY         1 TEMP              0 ****  ****    0 ROOT
