@<TRIPOS>MOLECULE
GP0
   37    38     1     0     0
SMALL
bcc


@<TRIPOS>ATOM
      1 C1           0.0000     0.0000     0.0000 cc         1 GP0      -0.118400
      2 F1          -2.0190     0.0010     1.1930 f          1 GP0      -0.122500
      3 N1           1.3710     0.0000     0.0000 n          1 GP0       0.071000
      4 C2          -0.6690     0.0010     1.1730 cd         1 GP0      -0.045700
      5 C3           0.0670     0.0010     2.3860 c          1 GP0       0.600700
      6 O3          -0.5120     0.0020     3.4560 o          1 GP0      -0.631500
      7 N4           1.4150     0.0020     2.3410 ns         1 GP0      -0.123500
      8 C5           2.0560     0.0000     1.1580 c          1 GP0       0.585500
      9 O5           3.2710     0.0000     1.1350 o          1 GP0      -0.686500
     10 C1'          2.0970    -0.0000    -1.2720 c3         1 GP0       0.229500
     11 C2'          2.8790     1.3080    -1.4150 c3         1 GP0       0.097100
     12 O2'          1.9690     2.4080    -1.4430 oh         1 GP0      -0.592800
     13 C3'          3.6830     1.2750    -2.7190 c3         1 GP0       0.131800
     14 O3'          4.4740     2.4600    -2.8230 oh         1 GP0      -0.571800
     15 C4'          4.5980     0.0460    -2.7090 c3         1 GP0       0.166100
     16 O4'          5.3000    -0.0360    -3.9510 oh         1 GP0      -0.547800
     17 C5'          3.7500    -1.2130    -2.5170 c3         1 GP0       0.160100
     18 O5'          3.0060    -1.1040    -1.3030 os         1 GP0      -0.373600
     19 C6'          4.6640    -2.4380    -2.4470 c3         1 GP0       0.226400
     20 O6'          3.8670    -3.6240    -2.3850 oh         1 GP0      -0.587800
     21 C7'          2.7240     1.1910    -3.9080 c3         1 GP0       0.180400
     22 H1          -0.5440    -0.0000    -0.9370 h4         1 GP0       0.148000
     23 HN4          1.9410     0.0020     3.1920 hn         1 GP0       0.211500
     24 H1'          1.3960    -0.0900    -2.0930 h2         1 GP0       0.039700
     25 H2'          3.5570     1.4140    -0.5760 h1         1 GP0       0.068700
     26 HO2'         2.2910     3.0980    -0.8860 ho         1 GP0       0.407000
     27 HO3'         3.9390     3.1680    -3.1430 ho         1 GP0       0.401000
     28 H4'          5.3060     0.1310    -1.8930 h1         1 GP0       0.027700
     29 HO4'         6.2200     0.1050    -3.8030 ho         1 GP0       0.390000
     30 H5'          3.0650    -1.3150    -3.3500 h1         1 GP0       0.035700
     31 H6'          5.2860    -2.3750    -1.5620 h1         1 GP0       0.003200
     32 H6'A         5.2920    -2.4720    -3.3290 h1         1 GP0       0.003200
     33 HO6'         4.4240    -4.3810    -2.4550 ho         1 GP0       0.392000
     34 H7'          2.1330     2.0970    -3.9590 h1         1 GP0      -0.000800
     35 O7'          3.4750     1.0420    -5.1150 oh         1 GP0      -0.552800
     36 H14          2.0680     0.3380    -3.7830 h1         1 GP0      -0.000800
     37 H15          2.9160     1.2090    -5.8550 ho         1 GP0       0.381000
@<TRIPOS>BOND
     1     1     3 1   
     2     1     4 2   
     3     1    22 1   
     4     2     4 1   
     5     3     8 1   
     6     3    10 1   
     7     4     5 1   
     8     5     6 2   
     9     5     7 1   
    10     7     8 1   
    11     7    23 1   
    12     8     9 2   
    13    10    11 1   
    14    10    18 1   
    15    10    24 1   
    16    11    12 1   
    17    11    13 1   
    18    11    25 1   
    19    12    26 1   
    20    13    14 1   
    21    13    15 1   
    22    13    21 1   
    23    14    27 1   
    24    15    16 1   
    25    15    17 1   
    26    15    28 1   
    27    16    29 1   
    28    17    18 1   
    29    17    19 1   
    30    17    30 1   
    31    19    20 1   
    32    19    31 1   
    33    19    32 1   
    34    20    33 1   
    35    21    34 1   
    36    21    35 1   
    37    21    36 1   
    38    35    37 1   
@<TRIPOS>SUBSTRUCTURE
     1 GP0         1 TEMP              0 ****  ****    0 ROOT
