@<TRIPOS>MOLECULE
molecule
   43    45     1     0     0
SMALL
bcc


@<TRIPOS>ATOM
      1 O6           0.0000     0.0000     0.0000 o          1 GP2      -0.685500
      2 C6           1.2190     0.0000     0.0000 c          1 GP2       0.669000
      3 C5           1.9440     0.0000     1.2150 cc         1 GP2       0.121800
      4 N7           1.5930    -0.0000     2.5240 nc         1 GP2      -0.637000
      5 C4           3.3430     0.0010     1.1610 cd         1 GP2       0.118800
      6 N3           3.9590     0.0000    -0.0260 nd         1 GP2      -0.679100
      7 C2           3.2750     0.0010    -1.1480 cc         1 GP2       0.146800
      8 N1           1.9120     0.0060    -1.1600 ns         1 GP2      -0.478400
      9 N2           3.9510     0.0010    -2.3420 nz         1 GP2      -0.633600
     10 N9           3.7730    -0.0000     2.4590 na         1 GP2      -0.221900
     11 C8           2.6660    -0.0000     3.2590 cd         1 GP2       0.407400
     12 C1'          5.1660    -0.0000     2.9110 c3         1 GP2       0.252800
     13 C2'          5.6670     1.4460     3.1140 c3         1 GP2       0.077100
     14 O2'          6.4140     1.8880     1.9790 oh         1 GP2      -0.580800
     15 C3'          6.5760     1.3560     4.3610 c3         1 GP2       0.088100
     16 O3'          7.9140     1.7360     4.0340 oh         1 GP2      -0.584800
     17 O4'          5.2730    -0.6160     4.2140 os         1 GP2      -0.376600
     18 C4'          6.5200    -0.1350     4.7600 c3         1 GP2       0.130100
     19 C5'          6.5250    -0.2820     6.2830 c3         1 GP2       0.163400
     20 O5'          6.3980    -1.6630     6.6280 os         1 GP2      -0.541200
     21 PA           6.4120    -1.7430     8.2360 p5         1 GP2       1.126600
     22 O1A          5.1790    -0.8920     8.8250 o          1 GP2      -0.784500
     23 O2A          7.6840    -1.1870     8.7480 o          1 GP2      -0.784500
     24 C3A          6.2550    -3.4810     8.7600 c3         1 GP2      -0.388800
     25 PB           6.2700    -3.5720    10.5800 p5         1 GP2       1.026700
     26 O1B          6.1310    -5.1080    11.0420 o          1 GP2      -0.590500
     27 O3B          7.6530    -2.9680    11.1360 o          1 GP2      -0.590500
     28 O2B          5.1360    -2.7910    11.1220 o          1 GP2      -0.590500
     29 HN1          1.4220     0.0070    -2.0330 hn         1 GP2       0.284500
     30 HN21         4.8880    -0.3200    -2.1950 hn         1 GP2       0.380800
     31 HN22         3.9720     0.9300    -2.7140 hn         1 GP2       0.380800
     32 H8           2.6800    -0.0010     4.3420 h5         1 GP2       0.084100
     33 H1'          5.7980    -0.5180     2.2000 h2         1 GP2       0.085700
     34 H1           4.8320     2.1100     3.3060 h1         1 GP2       0.052700
     35 H2'          6.1710     2.7740     1.7680 ho         1 GP2       0.389000
     36 H3'          6.1840     1.9740     5.1590 h1         1 GP2       0.056700
     37 H2           8.1350     2.5320     4.4890 ho         1 GP2       0.392000
     38 H4'          7.3520    -0.6710     4.3220 h1         1 GP2       0.069700
     39 H5'1         7.4560     0.1060     6.6800 h1         1 GP2       0.062700
     40 H5'2         5.6950     0.2730     6.7020 h1         1 GP2       0.062700
     41 H3A1         7.0840    -4.0540     8.3630 hc         1 GP2       0.068700
     42 H3A2         5.3230    -3.8880     8.3850 hc         1 GP2       0.068700
     43 H23          3.4820    -0.5990    -2.9910 hn         1 GP2       0.380800
@<TRIPOS>BOND
     1     1     2 2
     2     2     3 1
     3     2     8 1
     4     3     4 1
     5     3     5 2
     6     4    11 2
     7     5     6 1
     8     5    10 1
     9     6     7 2
    10     7     8 1
    11     7     9 1
    12     8    29 1
    13     9    30 1
    14     9    31 1
    15    10    11 1
    16    10    12 1
    17    11    32 1
    18    12    13 1
    19    12    17 1
    20    12    33 1
    21    13    14 1
    22    13    15 1
    23    13    34 1
    24    14    35 1
    25    15    16 1
    26    15    18 1
    27    15    36 1
    28    16    37 1
    29    17    18 1
    30    18    19 1
    31    18    38 1
    32    19    20 1
    33    19    39 1
    34    19    40 1
    35    20    21 1
    36    21    22 1
    37    21    23 1
    38    21    24 1
    39    24    25 1
    40    24    41 1
    41    24    42 1
    42    25    26 1
    43    25    27 1
    44    25    28 1
    45    43     9 1
@<TRIPOS>SUBSTRUCTURE
     1 GP2         1 TEMP              0 ****  ****    0 ROOT
