@<TRIPOS>MOLECULE
molecule
   34    35     1     0     0
SMALL
bcc


@<TRIPOS>ATOM
      1 N1           0.0000     0.0000     0.0000 n2         1 GP6      -0.731100
      2 N2           1.9920    -0.0010    -1.1930 nz         1 GP6      -0.741600
      3 C1           1.3030     0.0000     0.0000 ce         1 GP6       0.524800
      4 C2           2.0430     0.0000     1.2810 ca         1 GP6      -0.269900
      5 C3           1.3460     0.0010     2.4910 ca         1 GP6      -0.077000
      6 C4           2.0380     0.0020     3.6830 ca         1 GP6      -0.132000
      7 C5           3.4270     0.0020     3.6810 ca         1 GP6       0.144600
      8 C6           4.1230     0.0020     2.4780 ca         1 GP6      -0.132000
      9 C7           3.4370    -0.0050     1.2830 ca         1 GP6      -0.077000
     10 N3           4.1260     0.0020     4.8890 ns         1 GP6      -0.490100
     11 C8           3.6160    -0.6360     5.9610 c          1 GP6       0.782100
     12 O1           2.6000    -1.2920     5.8510 o          1 GP6      -0.626100
     13 N4           4.2330    -0.5440     7.1550 ns         1 GP6      -0.473100
     14 C9           3.7710    -1.2960     8.2420 ca         1 GP6       0.050600
     15 C10          3.2100    -2.5480     8.0320 ca         1 GP6      -0.132500
     16 C11          2.7550    -3.2880     9.1060 ca         1 GP6      -0.101000
     17 C12          2.8580    -2.7820    10.3900 ca         1 GP6       0.021400
     18 C13          3.4150    -1.5340    10.6010 ca         1 GP6      -0.101000
     19 C14          3.8780    -0.7930     9.5320 ca         1 GP6      -0.132500
     20 Cl           2.2840    -3.7150    11.7370 cl         1 GP6      -0.090400
     21 HN1         -0.5020     0.0000     0.8660 hn         1 GP6       0.483400
     22 HN21         2.5660    -0.8190    -1.2470 hn         1 GP6       0.472800
     23 HN22         1.3420     0.0010    -1.9540 hn         1 GP6       0.472800
     24 H3           0.2630     0.0020     2.4930 ha         1 GP6       0.127000
     25 H4           1.4980     0.0030     4.6220 ha         1 GP6       0.177500
     26 H6           5.2070    -0.0000     2.4800 ha         1 GP6       0.177500
     27 H7           3.9810    -0.0050     0.3460 ha         1 GP6       0.127000
     28 HN3          4.9800     0.5170     4.9730 hn         1 GP6       0.335500
     29 HN4          5.0370     0.0440     7.2590 hn         1 GP6       0.326500
     30 H10          3.1300    -2.9450     7.0280 ha         1 GP6       0.150000
     31 H11          2.3170    -4.2660     8.9440 ha         1 GP6       0.154500
     32 H13          3.4960    -1.1420    11.6080 ha         1 GP6       0.154500
     33 H14          4.3140     0.1840     9.6990 ha         1 GP6       0.150000
     34 H23          2.5570     0.8240    -1.2530 hn         1 GP6       0.472800
@<TRIPOS>BOND
     1     1     3 2
     2     1    21 1
     3     2     3 1
     4     2    22 1
     5     2    23 1
     6     3     4 1
     7     4     5 ar
     8     4     9 ar
     9     5     6 ar
    10     5    24 1
    11     6     7 ar
    12     6    25 1
    13     7     8 ar
    14     7    10 1
    15     8     9 ar
    16     8    26 1
    17     9    27 1
    18    10    11 1
    19    10    28 1
    20    11    12 2
    21    11    13 1
    22    13    14 1
    23    13    29 1
    24    14    15 ar
    25    14    19 ar
    26    15    16 ar
    27    15    30 1
    28    16    17 ar
    29    16    31 1
    30    17    18 ar
    31    17    20 1
    32    18    19 ar
    33    18    32 1
    34    19    33 1
    35    34     2 1
@<TRIPOS>SUBSTRUCTURE
     1 GP6         1 TEMP              0 ****  ****    0 ROOT
