@<TRIPOS>MOLECULE
GP6
   34    35     1     0     0
SMALL
bcc


@<TRIPOS>ATOM
      1 N1           0.0000     0.0000     0.0000 n2         1 GP6      -0.469100
      2 N2           1.9920    -0.0010    -1.1930 nz         1 GP6       0.122400
      3 C1           1.3030     0.0000     0.0000 ce         1 GP6       0.241800
      4 C2           2.0430     0.0000     1.2810 ca         1 GP6      -0.235900
      5 C3           1.3460     0.0010     2.4910 ca         1 GP6      -0.032000
      6 C4           2.0380     0.0020     3.6830 ca         1 GP6      -0.114000
      7 C5           3.4270     0.0020     3.6810 ca         1 GP6       0.002600
      8 C6           4.1230     0.0020     2.4780 ca         1 GP6      -0.114000
      9 C7           3.4370    -0.0050     1.2830 ca         1 GP6      -0.032000
     10 N3           4.1260     0.0020     4.8890 ns         1 GP6      -0.054100
     11 C8           3.6160    -0.6360     5.9610 c          1 GP6       0.550100
     12 O1           2.6000    -1.2920     5.8510 o          1 GP6      -0.674100
     13 N4           4.2330    -0.5440     7.1550 ns         1 GP6      -0.021100
     14 C9           3.7710    -1.2960     8.2420 ca         1 GP6      -0.103400
     15 C10          3.2100    -2.5480     8.0320 ca         1 GP6      -0.101500
     16 C11          2.7550    -3.2880     9.1060 ca         1 GP6      -0.076500
     17 C12          2.8580    -2.7820    10.3900 ca         1 GP6      -0.041600
     18 C13          3.4150    -1.5340    10.6010 ca         1 GP6      -0.076500
     19 C14          3.8780    -0.7930     9.5320 ca         1 GP6      -0.101500
     20 Cl           2.2840    -3.7150    11.7370 cl         1 GP6      -0.006400
     21 HN1         -0.5010    -0.0000    -0.8660 hn         1 GP6       0.334400
     22 HN21         1.3420     0.0020    -1.9540 hn         1 GP6       0.225467
     23 HN22         2.5650    -0.8200    -1.2470 hn         1 GP6       0.225467
     24 H3           0.2630     0.0020     2.4930 ha         1 GP6       0.104500
     25 H4           1.4980     0.0030     4.6220 ha         1 GP6       0.145500
     26 H6           5.2070    -0.0000     2.4800 ha         1 GP6       0.145500
     27 H7           3.9810    -0.0050     0.3460 ha         1 GP6       0.104500
     28 HN3          4.9800     0.5170     4.9730 hn         1 GP6       0.174500
     29 HN4          5.0370     0.0440     7.2590 hn         1 GP6       0.164500
     30 H10          3.1300    -2.9450     7.0280 ha         1 GP6       0.124000
     31 H11          2.3170    -4.2660     8.9440 ha         1 GP6       0.120500
     32 H13          3.4960    -1.1420    11.6080 ha         1 GP6       0.120500
     33 H14          4.3140     0.1840     9.6990 ha         1 GP6       0.124000
     34 H23          2.5570     0.8230    -1.2530 hn         1 GP6       0.225467
@<TRIPOS>BOND
     1     1     3 2   
     2     1    21 1   
     3     2     3 1   
     4     2    22 1   
     5     2    23 1   
     6     2    34 1   
     7     3     4 1   
     8     4     5 ar  
     9     4     9 ar  
    10     5     6 ar  
    11     5    24 1   
    12     6     7 ar  
    13     6    25 1   
    14     7     8 ar  
    15     7    10 1   
    16     8     9 ar  
    17     8    26 1   
    18     9    27 1   
    19    10    11 1   
    20    10    28 1   
    21    11    12 2   
    22    11    13 1   
    23    13    14 1   
    24    13    29 1   
    25    14    15 ar  
    26    14    19 ar  
    27    15    16 ar  
    28    15    30 1   
    29    16    17 ar  
    30    16    31 1   
    31    17    18 ar  
    32    17    20 1   
    33    18    19 ar  
    34    18    32 1   
    35    19    33 1   
@<TRIPOS>SUBSTRUCTURE
     1 GP6         1 TEMP              0 ****  ****    0 ROOT
