@<TRIPOS>MOLECULE
GP7
  113   112     1     0     0
SMALL
bcc


@<TRIPOS>ATOM
      1 P           1.6780   -0.6110   -0.0070 p5        1 GP7      1.427800
      2 C1          1.5130    1.8700    0.7690 c3        1 GP7      0.175400
      3 C2          1.1110    3.0400   -0.1430 c3        1 GP7      0.124100
      4 O2         -0.3150    3.2350   -0.1330 os        1 GP7     -0.398900
      5 C3          1.5170    2.8830   -1.6070 c3        1 GP7      0.139400
      6 O3          0.5250    2.0850   -2.2630 os        1 GP7     -0.407900
      7 C11         0.8270    1.6580   -3.5260 c         1 GP7      0.649100
      8 O11         1.7400    2.2190   -4.1380 o         1 GP7     -0.572000
      9 C12        -0.0640    0.5390   -3.9630 c3        1 GP7     -0.145400
     10 C13         0.1270    0.2150   -5.4270 c3        1 GP7     -0.072400
     11 C14        -0.7080   -0.9830   -5.8260 c3        1 GP7     -0.079400
     12 C15        -0.5230   -1.3140   -7.2910 c3        1 GP7     -0.077400
     13 C16        -1.3550   -2.5150   -7.6910 c3        1 GP7     -0.079400
     14 C17        -1.1710   -2.8480   -9.1560 c3        1 GP7     -0.078400
     15 C18        -2.0020   -4.0480   -9.5560 c3        1 GP7     -0.079400
     16 C19        -1.8190   -4.3810  -11.0210 c3        1 GP7     -0.078400
     17 O1P         2.9080   -0.0760   -0.6200 o         1 GP7     -0.828000
     18 C20        -2.6500   -5.5820  -11.4200 c3        1 GP7     -0.079400
     19 C21        -2.4670   -5.9150  -12.8850 c3        1 GP7     -0.078400
     20 C22        -3.2980   -7.1150  -13.2840 c3        1 GP7     -0.079400
     21 C23        -3.1150   -7.4490  -14.7490 c3        1 GP7     -0.079400
     22 C24        -3.9460   -8.6490  -15.1500 c3        1 GP7     -0.080400
     23 C25        -3.7670   -8.9850  -16.6080 c3        1 GP7     -0.092100
     24 O2P         1.5690   -1.6570    1.0280 o         1 GP7     -0.828000
     25 C31        -0.8640    3.8490    0.9490 c         1 GP7      0.639100
     26 O31        -0.1350    4.3950    1.7850 o         1 GP7     -0.573000
     27 C32        -2.3610    3.7690    0.9420 c3        1 GP7     -0.131400
     28 C33        -2.9810    4.9610    1.6380 c3        1 GP7     -0.078400
     29 C34        -4.4800    4.7960    1.7580 c3        1 GP7     -0.079400
     30 C35        -5.1080    5.9930    2.4400 c3        1 GP7     -0.078400
     31 C36        -6.6070    5.8270    2.5680 c3        1 GP7     -0.079400
     32 C37        -7.2350    7.0240    3.2520 c3        1 GP7     -0.076400
     33 C38        -8.7360    6.8520    3.3830 c3        1 GP7     -0.050200
     34 C39        -9.3590    8.0090    4.0700 c2        1 GP7     -0.163200
     35 O3P         0.8110    0.7010    0.5220 os        1 GP7     -0.569200
     36 C40       -10.4920    8.5880    3.6630 c2        1 GP7     -0.177200
     37 C41       -11.1380    9.7160    4.3800 c3        1 GP7     -0.016000
     38 C42       -11.5780   10.7840    3.4480 c2        1 GP7     -0.163200
     39 C43       -12.7610   11.3990    3.5370 c2        1 GP7     -0.177200
     40 C44       -13.1830   12.4990    2.6370 c3        1 GP7     -0.047200
     41 C45       -14.6090   12.3100    2.1560 c3        1 GP7     -0.077400
     42 C46       -15.0370   13.4390    1.2540 c3        1 GP7     -0.093100
     43 O4P         0.6570   -1.1130   -1.2050 os        1 GP7     -0.574200
     44 C351       -0.6180   -1.5000   -0.7920 c3        1 GP7      0.159400
     45 C361       -0.8230   -3.0220   -0.9150 c3        1 GP7      0.132800
     46 N1         -0.0930   -3.8630    0.0010 n3        1 GP7     -0.907800
     47 H1          2.6220    1.7070    0.6490 h1        1 GP7      0.044200
     48 H1A         1.2810    2.1950    1.8270 h1        1 GP7      0.044200
     49 H2          1.6110    3.9700    0.2550 h1        1 GP7      0.055700
     50 H3          2.5140    2.3680   -1.6720 h1        1 GP7      0.065700
     51 H3A         1.5570    3.8810   -2.1160 h1        1 GP7      0.065700
     52 H12        -1.1290    0.8150   -3.7490 hc        1 GP7      0.100200
     53 H12A        0.1870   -0.3510   -3.3120 hc        1 GP7      0.100200
     54 H13         1.2130    0.0080   -5.6230 hc        1 GP7      0.048700
     55 H13A       -0.1540    1.1030   -6.0520 hc        1 GP7      0.048700
     56 H14        -1.7900   -0.7730   -5.6200 hc        1 GP7      0.043200
     57 H14A       -0.4170   -1.8670   -5.1990 hc        1 GP7      0.043200
     58 H15        -0.8140   -0.4300   -7.9170 hc        1 GP7      0.038200
     59 H15A        0.5600   -1.5220   -7.4950 hc        1 GP7      0.038200
     60 H16        -2.4380   -2.3080   -7.4850 hc        1 GP7      0.040200
     61 H16A       -1.0630   -3.3980   -7.0640 hc        1 GP7      0.040200
     62 H17        -0.0880   -3.0550   -9.3610 hc        1 GP7      0.037700
     63 H17A       -1.4620   -1.9630   -9.7820 hc        1 GP7      0.037700
     64 H18        -3.0850   -3.8410   -9.3490 hc        1 GP7      0.039700
     65 H18A       -1.7100   -4.9320   -8.9290 hc        1 GP7      0.039700
     66 H19        -0.7360   -4.5880  -11.2260 hc        1 GP7      0.038200
     67 H19A       -2.1110   -3.4970  -11.6470 hc        1 GP7      0.038200
     68 H20        -3.7330   -5.3750  -11.2130 hc        1 GP7      0.039700
     69 H20A       -2.3570   -6.4660  -10.7940 hc        1 GP7      0.039700
     70 H21        -2.7590   -5.0310  -13.5110 hc        1 GP7      0.038700
     71 H21A       -1.3840   -6.1220  -13.0910 hc        1 GP7      0.038700
     72 H22        -4.3810   -6.9090  -13.0780 hc        1 GP7      0.039200
     73 H22A       -3.0050   -8.0000  -12.6580 hc        1 GP7      0.039200
     74 H23        -3.4070   -6.5640  -15.3750 hc        1 GP7      0.038700
     75 H23A       -2.0320   -7.6560  -14.9560 hc        1 GP7      0.038700
     76 H24        -5.0280   -8.4410  -14.9410 hc        1 GP7      0.038200
     77 H24A       -3.6530   -9.5320  -14.5210 hc        1 GP7      0.038200
     78 H25        -4.3880   -9.8720  -16.8810 hc        1 GP7      0.031033
     79 H25A       -2.6980   -9.2200  -16.8300 hc        1 GP7      0.031033
     80 H25B       -4.0770   -8.1260  -17.2510 hc        1 GP7      0.031033
     81 H32        -2.7250    3.6920   -0.1160 hc        1 GP7      0.079700
     82 H32A       -2.6400    2.8150    1.4670 hc        1 GP7      0.079700
     83 H33        -2.5230    5.0760    2.6570 hc        1 GP7      0.052700
     84 H33A       -2.7460    5.8960    1.0650 hc        1 GP7      0.052700
     85 H34        -4.9280    4.6660    0.7370 hc        1 GP7      0.040200
     86 H34A       -4.7120    3.8660    2.3410 hc        1 GP7      0.040200
     87 H35        -4.6550    6.1250    3.4580 hc        1 GP7      0.040200
     88 H35A       -4.8810    6.9220    1.8540 hc        1 GP7      0.040200
     89 H36        -6.8340    4.8970    3.1540 hc        1 GP7      0.039700
     90 H36A       -7.0590    5.6960    1.5500 hc        1 GP7      0.039700
     91 H37        -7.0130    7.9530    2.6640 hc        1 GP7      0.041200
     92 H37A       -6.7800    7.1570    4.2690 hc        1 GP7      0.041200
     93 H38        -8.9520    5.9220    3.9780 hc        1 GP7      0.046700
     94 H38A       -9.1860    6.7040    2.3650 hc        1 GP7      0.046700
     95 H39        -8.8240    8.3660    4.9660 ha        1 GP7      0.119000
     96 H40       -11.0210    8.2400    2.7610 ha        1 GP7      0.124000
     97 H41       -10.4270   10.1660    5.1290 hc        1 GP7      0.050700
     98 H41A      -12.0150    9.3150    4.9620 hc        1 GP7      0.050700
     99 H42       -10.8470   11.0560    2.6680 ha        1 GP7      0.125000
    100 H43       -13.4940   11.1180    4.3110 ha        1 GP7      0.118000
    101 H44       -12.4970   12.5730    1.7510 hc        1 GP7      0.045200
    102 H44A      -13.1060   13.4720    3.1950 hc        1 GP7      0.045200
    103 H45       -14.6910   11.3360    1.6070 hc        1 GP7      0.040700
    104 H45A      -15.2970   12.2510    3.0390 hc        1 GP7      0.040700
    105 H46       -14.9810   14.4160    1.7900 hc        1 GP7      0.032033
    106 H46A      -14.3780   13.4960    0.3530 hc        1 GP7      0.032033
    107 H46B      -16.0890   13.2830    0.9110 hc        1 GP7      0.032033
    108 H63        -0.8000   -1.1670    0.2680 h1        1 GP7      0.022700
    109 H64        -1.3630   -0.9920   -1.4700 h1        1 GP7      0.022700
    110 H65        -0.5660   -3.3270   -1.9670 h1        1 GP7      0.026700
    111 H66        -1.9210   -3.2210   -0.7520 h1        1 GP7      0.026700
    112 H67        -0.1140   -3.4650    0.9250 hn        1 GP7      0.358800
    113 H68         0.8730   -3.9050   -0.2690 hn        1 GP7      0.358800
@<TRIPOS>BOND
     1    1   17 1   
     2    1   24 1   
     3    1   35 1   
     4    1   43 1   
     5    2    3 1   
     6    2   35 1   
     7    2   47 1   
     8    2   48 1   
     9    3    4 1   
    10    3    5 1   
    11    3   49 1   
    12    4   25 1   
    13    5    6 1   
    14    5   50 1   
    15    5   51 1   
    16    6    7 1   
    17    7    8 2   
    18    7    9 1   
    19    9   10 1   
    20    9   52 1   
    21    9   53 1   
    22   10   11 1   
    23   10   54 1   
    24   10   55 1   
    25   11   12 1   
    26   11   56 1   
    27   11   57 1   
    28   12   13 1   
    29   12   58 1   
    30   12   59 1   
    31   13   14 1   
    32   13   60 1   
    33   13   61 1   
    34   14   15 1   
    35   14   62 1   
    36   14   63 1   
    37   15   16 1   
    38   15   64 1   
    39   15   65 1   
    40   16   18 1   
    41   16   66 1   
    42   16   67 1   
    43   18   19 1   
    44   18   68 1   
    45   18   69 1   
    46   19   20 1   
    47   19   70 1   
    48   19   71 1   
    49   20   21 1   
    50   20   72 1   
    51   20   73 1   
    52   21   22 1   
    53   21   74 1   
    54   21   75 1   
    55   22   23 1   
    56   22   76 1   
    57   22   77 1   
    58   23   78 1   
    59   23   79 1   
    60   23   80 1   
    61   25   26 2   
    62   25   27 1   
    63   27   28 1   
    64   27   81 1   
    65   27   82 1   
    66   28   29 1   
    67   28   83 1   
    68   28   84 1   
    69   29   30 1   
    70   29   85 1   
    71   29   86 1   
    72   30   31 1   
    73   30   87 1   
    74   30   88 1   
    75   31   32 1   
    76   31   89 1   
    77   31   90 1   
    78   32   33 1   
    79   32   91 1   
    80   32   92 1   
    81   33   34 1   
    82   33   93 1   
    83   33   94 1   
    84   34   36 2   
    85   34   95 1   
    86   36   37 1   
    87   36   96 1   
    88   37   38 1   
    89   37   97 1   
    90   37   98 1   
    91   38   39 2   
    92   38   99 1   
    93   39   40 1   
    94   39  100 1   
    95   40   41 1   
    96   40  101 1   
    97   40  102 1   
    98   41   42 1   
    99   41  103 1   
   100   41  104 1   
   101   42  105 1   
   102   42  106 1   
   103   42  107 1   
   104   43   44 1   
   105   44   45 1   
   106   44  108 1   
   107   44  109 1   
   108   45   46 1   
   109   45  110 1   
   110   45  111 1   
   111   46  112 1   
   112   46  113 1   
@<TRIPOS>SUBSTRUCTURE
     1 GP7         1 TEMP              0 ****  ****    0 ROOT
