@<TRIPOS>MOLECULE
molecule
   45    47     1     0     0
SMALL
bcc


@<TRIPOS>ATOM
      1 N1           0.0000     0.0000     0.0000 nz         1 GP8      -0.741600
      2 N2           2.0290    -0.0010    -1.1290 n2         1 GP8      -0.732100
      3 C1           1.3770     0.0000     0.0000 ce         1 GP8       0.524800
      4 C2           2.1180     0.0000     1.2810 ca         1 GP8      -0.271900
      5 C3           3.5130    -0.0010     1.2810 ca         1 GP8      -0.077000
      6 C4           4.2000    -0.0000     2.4750 ca         1 GP8      -0.133000
      7 C5           3.5040    -0.0010     3.6790 ca         1 GP8       0.147600
      8 C6           2.1140     0.0010     3.6810 ca         1 GP8      -0.133000
      9 C7           1.4220     0.0060     2.4890 ca         1 GP8      -0.077000
     10 N3           4.2020    -0.0010     4.8880 ns         1 GP8      -0.490100
     11 C8           5.3860     0.6360     4.9820 c          1 GP8       0.780100
     12 O1           5.7950     1.3000     4.0490 o          1 GP8      -0.630100
     13 N4           6.1150     0.5380     6.1100 ns         1 GP8      -0.468100
     14 C9           7.2950     1.2810     6.2490 ca         1 GP8       0.011600
     15 C10          7.3970     2.5360     5.6650 ca         1 GP8      -0.105500
     16 C11          8.5590     3.2690     5.8020 ca         1 GP8      -0.161000
     17 C12          9.6250     2.7520     6.5230 ca         1 GP8       0.118100
     18 C13          9.5230     1.4980     7.1080 ca         1 GP8      -0.161000
     19 C14          8.3600     0.7670     6.9750 ca         1 GP8      -0.105500
     20 O2          10.7690     3.4730     6.6580 os         1 GP8      -0.212200
     21 C15         10.5370     4.6870     6.0940 ca         1 GP8       0.084100
     22 C16         10.0060     5.7170     6.8550 ca         1 GP8      -0.141500
     23 C17          9.7720     6.9500     6.2780 ca         1 GP8      -0.123000
     24 C18         10.0640     7.1580     4.9420 ca         1 GP8      -0.127000
     25 C19         10.5930     6.1320     4.1820 ca         1 GP8      -0.123000
     26 C20         10.8350     4.8980     4.7550 ca         1 GP8      -0.141500
     27 HN11        -0.3340     0.8180     0.4690 hn         1 GP8       0.472133
     28 HN12        -0.3340    -0.0020    -0.9440 hn         1 GP8       0.472133
     29 HN2          3.0290    -0.0010    -1.1300 hn         1 GP8       0.483400
     30 H3           4.0560    -0.0010     0.3440 ha         1 GP8       0.126000
     31 H4           5.2830    -0.0010     2.4760 ha         1 GP8       0.177500
     32 H6           1.5740     0.0030     4.6200 ha         1 GP8       0.177500
     33 H7           0.3390     0.0070     2.4920 ha         1 GP8       0.126000
     34 HN3          3.8390    -0.5000     5.6760 hn         1 GP8       0.334500
     35 HN4          5.7980    -0.0420     6.8620 hn         1 GP8       0.323500
     36 H10          6.5650     2.9410     5.1010 ha         1 GP8       0.147000
     37 H11          8.6390     4.2480     5.3460 ha         1 GP8       0.158500
     38 H13         10.3550     1.0950     7.6730 ha         1 GP8       0.158500
     39 H14          8.2810    -0.2130     7.4320 ha         1 GP8       0.147000
     40 H16          9.8330     5.5730     7.9150 ha         1 GP8       0.149500
     41 H17          9.3630     7.7570     6.8740 ha         1 GP8       0.138500
     42 H18          9.8810     8.1260     4.4920 ha         1 GP8       0.136000
     43 H19         10.8210     6.2970     3.1350 ha         1 GP8       0.138500
     44 H20         11.5280     4.3250     4.1510 ha         1 GP8       0.149500
     45 H131        -0.3340    -0.8160     0.4740 hn         1 GP8       0.472133
@<TRIPOS>BOND
     1     1     3 1
     2     1    27 1
     3     1    28 1
     4     2     3 2
     5     2    29 1
     6     3     4 1
     7     4     5 ar
     8     4     9 ar
     9     5     6 ar
    10     5    30 1
    11     6     7 ar
    12     6    31 1
    13     7     8 ar
    14     7    10 1
    15     8     9 ar
    16     8    32 1
    17     9    33 1
    18    10    11 1
    19    10    34 1
    20    11    12 2
    21    11    13 1
    22    13    14 1
    23    13    35 1
    24    14    15 ar
    25    14    19 ar
    26    15    16 ar
    27    15    36 1
    28    16    17 ar
    29    16    37 1
    30    17    18 ar
    31    17    20 1
    32    18    19 ar
    33    18    38 1
    34    19    39 1
    35    20    21 1
    36    21    22 ar
    37    21    26 ar
    38    22    23 ar
    39    22    40 1
    40    23    24 ar
    41    23    41 1
    42    24    25 ar
    43    24    42 1
    44    25    26 ar
    45    25    43 1
    46    26    44 1
    47    45     1 1
@<TRIPOS>SUBSTRUCTURE
     1 GP8         1 TEMP              0 ****  ****    0 ROOT
