@<TRIPOS>MOLECULE
GP9
   17    16     1     0     0
SMALL
bcc


@<TRIPOS>ATOM
      1 C2          0.2900    0.2630    0.5610 c3        1 GP9      0.072400
      2 C3          1.4040   -0.5670   -0.0820 c3        1 GP9      0.080100
      3 C4          2.4350   -1.0280    0.9790 c3        1 GP9      0.210400
      4 O2         -0.5330    0.8700   -0.4320 oh        1 GP9     -0.660800
      5 O3          2.0110    0.2020   -1.1100 oh        1 GP9     -0.667800
      6 O4          3.4700   -0.1370    1.0730 os        1 GP9     -0.566200
      7 P1          3.6130    0.6010    2.6590 p5        1 GP9      1.314900
      8 O8          2.3210    1.3780    2.6650 o         1 GP9     -0.928500
      9 O9          3.6360   -0.6080    3.5530 o         1 GP9     -0.928500
     10 O10         4.8830    1.3880    2.5300 o         1 GP9     -0.928500
     11 H21         0.7380    1.0490    1.2390 h1        1 GP9      0.084200
     12 H22        -0.4020   -0.3980    1.1430 h1        1 GP9      0.084200
     13 H3          0.9580   -1.4530   -0.6140 h1        1 GP9     -0.001300
     14 HA          0.0750    1.3040   -1.0420 ho        1 GP9      0.399000
     15 H41         2.8230   -2.0330    0.6300 h1        1 GP9     -0.005300
     16 H42         1.9170   -1.1640    1.9700 h1        1 GP9     -0.005300
     17 HB          2.7730    0.6500   -0.7040 ho        1 GP9      0.447000
@<TRIPOS>BOND
     1    1    2 1   
     2    1    4 1   
     3    1   11 1   
     4    1   12 1   
     5    2    3 1   
     6    2    5 1   
     7    2   13 1   
     8    3    6 1   
     9    3   15 1   
    10    3   16 1   
    11    4   14 1   
    12    5   17 1   
    13    6    7 1   
    14    7    8 1   
    15    7    9 1   
    16    7   10 1   
@<TRIPOS>SUBSTRUCTURE
     1 GP9         1 TEMP              0 ****  ****    0 ROOT
