@<TRIPOS>MOLECULE
molecule
   17    16     1     0     0
SMALL
bcc


@<TRIPOS>ATOM
      1 C2           0.0000     0.0000     0.0000 c3         1 GP9       0.114400
      2 C3           1.5300     0.0000     0.0000 c3         1 GP9       0.139100
      3 C4           2.0400     0.0000     1.4420 c3         1 GP9       0.216400
      4 O2          -0.4770    -0.1170    -1.3420 oh         1 GP9      -0.623800
      5 O3           2.0060     1.1680    -0.6740 oh         1 GP9      -0.597800
      6 O4           3.4640    -0.1160     1.4430 os         1 GP9      -0.572200
      7 P1           4.3400    -0.1490     2.7940 p5         1 GP9       1.177900
      8 O8           4.0160     1.1170     3.6580 o          1 GP9      -0.909833
      9 O9           3.9930    -1.4420     3.6100 o          1 GP9      -0.909833
     10 O10          5.8630    -0.1560     2.4290 o          1 GP9      -0.909833
     11 H21         -0.3610    -0.8370     0.5860 h1         1 GP9       0.021700
     12 H22         -0.3610     0.9250     0.4320 h1         1 GP9       0.021700
     13 H3           1.8910    -0.8840    -0.5110 h1         1 GP9       0.036700
     14 HA          -1.4160    -0.2000    -1.3350 ho         1 GP9       0.370000
     15 H41          1.7530     0.9250     1.9270 h1         1 GP9       0.018700
     16 H42          1.6090    -0.8370     1.9780 h1         1 GP9       0.018700
     17 HB           2.5310     0.9120    -1.4140 ho         1 GP9       0.389000
@<TRIPOS>BOND
     1     1     2 1
     2     1     4 1
     3     2     3 1
     4     2     5 1
     5     2    13 1
     6     3     6 1
     7     6     7 1
     8     7     8 1
     9     7     9 1
    10     7    10 1
    11     1    11 1
    12     1    12 1
    13     4    14 1
    14     3    15 1
    15     3    16 1
    16     5    17 1
@<TRIPOS>SUBSTRUCTURE
     1 GP9         1 TEMP              0 ****  ****    0 ROOT
