@<TRIPOS>MOLECULE
GPA
   22    19     1     0     0
SMALL
bcc


@<TRIPOS>ATOM
      1 N         -55.1970 -132.7890  199.3900 n4        1 GPA     -0.715400
      2 CA        -56.4950 -132.2050  199.6950 c2        1 GPA     -0.144000
      3 C         -52.2940 -132.7900  196.6580 c1        1 GPA      0.925000
      4 OA1       -51.4250 -132.7830  195.8600 o         1 GPA     -0.461500
      5 OA2       -53.1790 -132.7980  197.4700 o         1 GPA     -0.461500
      6 CD        -57.5840 -132.3760  198.9400 c2        1 GPA     -0.099000
      7 NE         69.5670  163.1590 -241.0640 nh        1 GPA     -0.951800
      8 CZ         69.5500  161.8730 -240.4910 c2        1 GPA      0.702100
      9 NH1        70.1540  160.8290 -241.4300 n4        1 GPA     -0.823600
     10 NH2        69.2260  161.4060 -239.3360 n2        1 GPA     -0.747100
     11 HN1       -55.2190 -133.3470  198.5270 hn        1 GPA      0.468133
     12 HN2       -54.4980 -132.0420  199.2600 hn        1 GPA      0.468133
     13 HA        -56.4770 -131.6000  200.6240 hx        1 GPA      0.205000
     14 HCD1      -57.6260 -132.9710  198.0130 ha        1 GPA      0.173000
     15 HCD2      -58.5370 -131.9010  199.2340 ha        1 GPA      0.173000
     16 HNE1       68.9590  163.3110 -241.8400 hn        1 GPA      0.450800
     17 HN11       70.2270  159.9220 -240.9490 hn        1 GPA      0.477800
     18 HN12       71.0890  161.1400 -241.7180 hn        1 GPA      0.477800
     19 HN21       68.8040  162.0120 -238.6630 hn        1 GPA      0.486400
     20 HN3       -54.8970 -133.3900  200.1660 hn        1 GPA      0.468133
     21 HE3        69.6060  163.9110 -240.4070 hn        1 GPA      0.450800
     22 HH13       69.5580  160.7270 -242.2570 hn        1 GPA      0.477800
@<TRIPOS>BOND
     1    1    2 1   
     2    1   11 1   
     3    1   12 1   
     4    1   20 1   
     5    2    6 2   
     6    2   13 1   
     7    3    4 2   
     8    3    5 2   
     9    6   14 1   
    10    6   15 1   
    11    7    8 1   
    12    7   16 1   
    13    7   21 1   
    14    8    9 1   
    15    8   10 2   
    16    9   17 1   
    17    9   18 1   
    18    9   22 1   
    19   10   19 1   
@<TRIPOS>SUBSTRUCTURE
     1 GPA         1 TEMP              0 ****  ****    0 ROOT
