@<TRIPOS>MOLECULE
GPB
   52    54     1     0     0
SMALL
bcc


@<TRIPOS>ATOM
      1 N1           0.0000     0.0000     0.0000 nb         1 GPB      -0.651000
      2 C2           1.3220     0.0000     0.0000 ca         1 GPB       0.714900
      3 NA2          1.9900    -0.0010    -1.2130 nv         1 GPB      -0.637500
      4 N3           2.0340     0.0000     1.1210 nb         1 GPB      -0.663000
      5 C4           1.4450     0.0010     2.3040 ca         1 GPB       0.490600
      6 C5           2.2610     0.0010     3.5710 c3         1 GPB      -0.061400
      7 C4A          0.0520    -0.0040     2.3560 ca         1 GPB      -0.345400
      8 C6          -0.9440     0.0040     3.4270 cc         1 GPB      -0.086400
      9 C7          -2.1490     0.0040     2.8370 cd         1 GPB      -0.288100
     10 N8          -2.0010     0.0020     1.4720 na         1 GPB       0.258900
     11 C8A         -0.6730     0.0010     1.1460 ca         1 GPB       0.258800
     12 C9          -0.6710     0.0040     4.9090 c3         1 GPB       0.047800
     13 C10         -0.5790    -1.4360     5.4120 c3         1 GPB       0.037900
     14 C11          0.1990    -1.4350     9.6160 ca         1 GPB      -0.101600
     15 C12         -1.1160    -1.4330     9.1460 ca         1 GPB      -0.064500
     16 C13         -1.3590    -1.4340     7.7890 ca         1 GPB      -0.122000
     17 C14         -0.3040    -1.4360     6.8940 ca         1 GPB      -0.118300
     18 C15          1.0000    -1.4420     7.3530 ca         1 GPB      -0.122000
     19 C16          1.2590    -1.4360     8.7080 ca         1 GPB      -0.064500
     20 O           -0.4570    -1.4310    11.8590 o          1 GPB      -0.693100
     21 N            1.7380    -1.4350    11.5210 ns         1 GPB      -0.067900
     22 CA           2.0040    -1.4350    12.9610 c3         1 GPB      -0.118300
     23 CB           3.3230    -2.1570    13.2370 c3         1 GPB      -0.013400
     24 CG           3.2280    -3.5980    12.7360 c3         1 GPB      -0.144400
     25 CD           4.5290    -4.3110    13.0080 c          1 GPB       0.983600
     26 OE1          5.4380    -3.7250    13.5450 o          1 GPB      -0.920300
     27 OE2          4.6770    -5.5960    12.6510 o          1 GPB      -0.920300
     28 CT           2.0980    -0.0130    13.4530 c          1 GPB       0.986600
     29 O1           2.5380     0.9540    12.6330 o          1 GPB      -0.907800
     30 O2           1.7760     0.2560    14.5860 o          1 GPB      -0.907800
     31 HA22         2.3010     0.8620    -1.6140 hn         1 GPB       0.271300
     32 HA21         2.1610    -0.8640    -1.6900 hn         1 GPB       0.271300
     33 H53          2.1180    -0.9370     4.0940 hc         1 GPB       0.027367
     34 H52          3.3090     0.1210     3.3260 hc         1 GPB       0.027367
     35 H51          1.9430     0.8200     4.2060 hc         1 GPB       0.027367
     36 H7          -3.0980     0.0070     3.3600 h4         1 GPB       0.147000
     37 H8          -2.7540     0.0020     0.8130 hn         1 GPB       0.112700
     38 H91          0.2650     0.5150     5.1040 hc         1 GPB       0.028700
     39 H92         -1.4750     0.5160     5.4250 hc         1 GPB       0.028700
     40 H101         0.2250    -1.9480     4.8960 hc         1 GPB       0.012200
     41 H102        -1.5150    -1.9470     5.2190 hc         1 GPB       0.012200
     42 H12         -1.9430    -1.4310     9.8460 ha         1 GPB       0.124500
     43 H13         -2.3790    -1.4330     7.4230 ha         1 GPB       0.092000
     44 H15          1.8210    -1.4430     6.6470 ha         1 GPB       0.092000
     45 H16          2.2810    -1.4390     9.0660 ha         1 GPB       0.124500
     46 H            2.4990    -1.3970    10.8720 hn         1 GPB       0.165500
     47 HA1          1.1990    -1.9430    13.4770 h1         1 GPB       0.052700
     48 HB2          4.1280    -1.6480    12.7210 hc         1 GPB       0.033200
     49 HB1          3.5190    -2.1570    14.3020 hc         1 GPB       0.033200
     50 HG2          3.0320    -3.5990    11.6710 hc         1 GPB       0.000200
     51 HG1          2.4230    -4.1080    13.2520 hc         1 GPB       0.000200
     52 C            0.4670    -1.4330    11.0700 c          1 GPB       0.554700
@<TRIPOS>BOND
     1     1     2 ar  
     2     1    11 ar  
     3     2     3 1   
     4     2     4 ar  
     5     3    31 1   
     6     3    32 1   
     7     4     5 ar  
     8     5     6 1   
     9     5     7 ar  
    10     6    33 1   
    11     6    34 1   
    12     6    35 1   
    13     7     8 1   
    14     7    11 ar  
    15     8     9 2   
    16     8    12 1   
    17     9    10 1   
    18     9    36 1   
    19    10    11 1   
    20    10    37 1   
    21    12    13 1   
    22    12    38 1   
    23    12    39 1   
    24    13    17 1   
    25    13    40 1   
    26    13    41 1   
    27    14    15 ar  
    28    14    19 ar  
    29    14    52 1   
    30    15    16 ar  
    31    15    42 1   
    32    16    17 ar  
    33    16    43 1   
    34    17    18 ar  
    35    18    19 ar  
    36    18    44 1   
    37    19    45 1   
    38    20    52 2   
    39    21    22 1   
    40    21    46 1   
    41    21    52 1   
    42    22    23 1   
    43    22    28 1   
    44    22    47 1   
    45    23    24 1   
    46    23    48 1   
    47    23    49 1   
    48    24    25 1   
    49    24    50 1   
    50    24    51 1   
    51    25    26 1   
    52    25    27 1   
    53    28    29 1   
    54    28    30 1   
@<TRIPOS>SUBSTRUCTURE
     1 GPB         1 TEMP              0 ****  ****    0 ROOT
