@<TRIPOS>MOLECULE
GPE
   27    26     1     0     0
SMALL
bcc


@<TRIPOS>ATOM
      1 P            0.0000     0.0000     0.0000 p5         1 GPE       0.909800
      2 O11          1.6080     0.0000     0.0000 os         1 GPE      -0.459200
      3 O12         -0.5370     0.0000     1.5160 os         1 GPE      -0.495200
      4 O14         -0.5370    -1.3140    -0.7600 o          1 GPE      -0.661000
      5 O13         -0.4930     1.2090    -0.6980 o          1 GPE      -0.661000
      6 C1           2.0230     0.0010    -1.3670 c3         1 GPE       0.235400
      7 C2           3.5500     0.0010    -1.4390 c3         1 GPE       0.167100
      8 C3           3.9940     0.0010    -2.9030 c3         1 GPE       0.206400
      9 O31          5.4200     0.0010    -2.9700 oh         1 GPE      -0.595800
     10 O21          4.0580     1.1670    -0.7880 oh         1 GPE      -0.577800
     11 C11         -1.9650    -0.0010     1.4510 c3         1 GPE       0.236400
     12 C12         -2.5430    -0.0010     2.8670 c3         1 GPE      -0.070200
     13 N           -2.0850     1.1980     3.5820 nz         1 GPE       0.088400
     14 H11          1.6380    -0.8840    -1.8610 h1         1 GPE       0.019700
     15 H12          1.6380     0.8850    -1.8600 h1         1 GPE       0.019700
     16 H2           3.9350    -0.8840    -0.9460 h1         1 GPE       0.001700
     17 H31          3.6090     0.8860    -3.3960 h1         1 GPE      -0.007800
     18 H32          3.6100    -0.8830    -3.3970 h1         1 GPE      -0.007800
     19 HO1          5.6930    -0.0890    -3.8680 ho         1 GPE       0.382000
     20 HO2          4.6090     0.9100    -0.0670 ho         1 GPE       0.383000
     21 H111        -2.3010    -0.8860     0.9240 h1         1 GPE       0.049200
     22 H112        -2.3020     0.8830     0.9230 h1         1 GPE       0.049200
     23 H121        -3.6250     0.0010     2.8150 hx         1 GPE       0.068200
     24 H122        -2.2070    -0.8860     3.3930 hx         1 GPE       0.068200
     25 HN1         -2.6260     1.3150     4.4160 hn         1 GPE       0.216133
     26 HN2         -2.1980     2.0000     2.9950 hn         1 GPE       0.216133
     27 HN3         -1.1190     1.0940     3.8230 hn         1 GPE       0.216133
@<TRIPOS>BOND
     1     1     2 1   
     2     1     3 1   
     3     1     4 1   
     4     1     5 1   
     5     2     6 1   
     6     3    11 1   
     7     6     7 1   
     8     6    14 1   
     9     6    15 1   
    10     7     8 1   
    11     7    10 1   
    12     7    16 1   
    13     8     9 1   
    14     8    17 1   
    15     8    18 1   
    16     9    19 1   
    17    10    20 1   
    18    11    12 1   
    19    11    21 1   
    20    11    22 1   
    21    12    13 1   
    22    12    23 1   
    23    12    24 1   
    24    13    25 1   
    25    13    26 1   
    26    13    27 1   
@<TRIPOS>SUBSTRUCTURE
     1 GPE         1 TEMP              0 ****  ****    0 ROOT
