@<TRIPOS>MOLECULE
molecule
   15    14     1     0     0
SMALL
bcc


@<TRIPOS>ATOM
      1 C1           0.0000     0.0000     0.0000 c3         1 GPF      -0.015400
      2 C2          -0.7790     1.3660     1.8410 c3         1 GPF       0.058800
      3 C3          -1.2780     1.3250     3.2630 c          1 GPF       0.900600
      4 O1           2.3590     1.3750     0.6430 o          1 GPF      -0.937500
      5 O2           2.3160    -1.1430     0.8000 o          1 GPF      -0.937500
      6 O3           2.3590    -0.1330    -1.5120 o          1 GPF      -0.937500
      7 O4          -1.3830     0.2680     3.8370 o          1 GPF      -0.901300
      8 P1           1.8230     0.0000     0.0000 p5         1 GPF       1.098700
      9 O5          -1.6060     2.4660     3.8910 o          1 GPF      -0.901300
     10 N1          -0.4910     0.0000     1.3850 n7         1 GPF      -0.732200
     11 H1          -0.3610     0.8840    -0.5110 h1         1 GPF      -0.016300
     12 H1A         -0.3610    -0.8840    -0.5110 h1         1 GPF      -0.016300
     13 H2          -1.5360     1.8080     1.2050 h1         1 GPF       0.026200
     14 H2A          0.1250     1.9610     1.7930 h1         1 GPF       0.026200
     15 HN1         -1.3230    -0.5540     1.4440 hn         1 GPF       0.283800
@<TRIPOS>BOND
     1     8     1 1
     2     1    10 1
     3     1    11 1
     4     1    12 1
     5    10     2 1
     6     2     3 1
     7     2    13 1
     8     2    14 1
     9     7     3 1
    10     3     9 1
    11     8     4 1
    12     5     8 1
    13     6     8 1
    14    10    15 1
@<TRIPOS>SUBSTRUCTURE
     1 GPF         1 TEMP              0 ****  ****    0 ROOT
