@<TRIPOS>MOLECULE
molecule
   54    55     1     0     0
SMALL
bcc


@<TRIPOS>ATOM
      1 C2           0.0000     0.0000     0.0000 c3         1 GPI       0.072700
      2 N6           1.4700     0.0000     0.0000 n          1 GPI      -0.464800
      3 C5           1.9420     0.0000     1.3960 c3         1 GPI       0.091000
      4 C3          -0.4580    -0.0360     1.4740 c3         1 GPI      -0.084400
      5 C4           0.7770    -0.6180     2.2100 c3         1 GPI      -0.102400
      6 C1          -0.5230     1.2440    -0.6690 c          1 GPI       0.627100
      7 O1           0.2480     2.0590    -1.1150 o          1 GPI      -0.529000
      8 O2          -1.8450     1.4490    -0.7670 os         1 GPI      -0.443900
      9 C14         -2.3490     2.6480    -1.4090 c3         1 GPI       0.156400
     10 C15         -3.8800     2.6350    -1.3880 c3         1 GPI      -0.082400
     11 C16         -4.4100     3.8990    -2.0680 c3         1 GPI      -0.030100
     12 N19         -7.9440     3.2980    -3.0730 nb         1 GPI      -0.686000
     13 C20         -8.6350     3.8230    -2.0800 ca         1 GPI       0.416200
     14 C21         -7.9950     4.4130    -1.0080 ca         1 GPI      -0.252300
     15 C22         -6.6090     4.4480    -0.9850 ca         1 GPI      -0.090000
     16 C17         -5.9170     3.8860    -2.0460 ca         1 GPI      -0.209600
     17 C18         -6.6260     3.3190    -3.0870 ca         1 GPI       0.424200
     18 C7           2.2560     0.0050    -1.0950 c          1 GPI       0.596100
     19 O7           1.7550     0.0050    -2.2000 o          1 GPI      -0.576100
     20 C8           3.7380     0.0110    -0.9490 c          1 GPI       0.524100
     21 O8           4.2360     0.0110     0.1520 o          1 GPI      -0.511100
     22 C9           4.6180     0.0170    -2.1720 c3         1 GPI      -0.141000
     23 C12          4.3230     1.2660    -3.0050 c3         1 GPI      -0.087600
     24 C13          4.3340    -1.2320    -3.0090 c3         1 GPI      -0.087600
     25 C10          6.0870     0.0210    -1.7460 c3         1 GPI      -0.068400
     26 C11          6.9780     0.0270    -2.9890 c3         1 GPI      -0.095100
     27 H2          -0.3640    -0.8800    -0.5160 h1         1 GPI       0.089700
     28 H51          2.8320    -0.6110     1.4910 h1         1 GPI       0.070200
     29 H52          2.1360     1.0130     1.7270 h1         1 GPI       0.070200
     30 H31         -0.6790     0.9630     1.8290 hc         1 GPI       0.065200
     31 H32         -1.3140    -0.6900     1.5910 hc         1 GPI       0.065200
     32 H41          0.8060    -0.2830     3.2400 hc         1 GPI       0.060700
     33 H42          0.7920    -1.6990     2.1450 hc         1 GPI       0.060700
     34 H141        -2.0030     2.6810    -2.4350 h1         1 GPI       0.049200
     35 H142        -1.9890     3.5210    -0.8790 h1         1 GPI       0.049200
     36 H151        -4.2260     2.6040    -0.3620 hc         1 GPI       0.057700
     37 H152        -4.2400     1.7610    -1.9180 hc         1 GPI       0.057700
     38 H161        -4.0640     3.9290    -3.0940 hc         1 GPI       0.053200
     39 H162        -4.0480     4.7720    -1.5390 hc         1 GPI       0.053200
     40 H21         -8.5680     4.8430    -0.1960 ha         1 GPI       0.138000
     41 H22         -6.0800     4.9040    -0.1570 ha         1 GPI       0.138000
     42 H18         -6.0920     2.8770    -3.9200 h4         1 GPI       0.024100
     43 H121         4.8040     1.1770    -3.9720 hc         1 GPI       0.049367
     44 H122         3.2530     1.3640    -3.1420 hc         1 GPI       0.049367
     45 H123         4.7040     2.1400    -2.4920 hc         1 GPI       0.049367
     46 H131         3.2940    -1.2360    -3.3110 hc         1 GPI       0.049367
     47 H132         4.5420    -2.1160    -2.4200 hc         1 GPI       0.049367
     48 H133         4.9650    -1.2280    -3.8890 hc         1 GPI       0.049367
     49 H101         6.2880     0.9050    -1.1530 hc         1 GPI       0.050700
     50 H102         6.2940    -0.8640    -1.1570 hc         1 GPI       0.050700
     51 H111         7.9960     0.2620    -2.7020 hc         1 GPI       0.036033
     52 H112         6.9510    -0.9490    -3.4580 hc         1 GPI       0.036033
     53 H113         6.6190     0.7730    -3.6880 hc         1 GPI       0.036033
     54 H20         -9.7180     3.7890    -2.1050 h4         1 GPI       0.023100
@<TRIPOS>BOND
     1     1     2 1
     2     1     4 1
     3     1     6 1
     4     1    27 1
     5     2     3 1
     6     2    18 1
     7     3     5 1
     8     3    28 1
     9     3    29 1
    10     4     5 1
    11     4    30 1
    12     4    31 1
    13     5    32 1
    14     5    33 1
    15     6     7 2
    16     6     8 1
    17     8     9 1
    18     9    10 1
    19     9    34 1
    20     9    35 1
    21    10    11 1
    22    10    36 1
    23    10    37 1
    24    11    16 1
    25    11    38 1
    26    11    39 1
    27    12    13 ar
    28    12    17 ar
    29    13    14 ar
    30    13    54 1
    31    14    15 ar
    32    14    40 1
    33    15    16 ar
    34    15    41 1
    35    16    17 ar
    36    17    42 1
    37    18    19 2
    38    18    20 1
    39    20    21 2
    40    20    22 1
    41    22    23 1
    42    22    24 1
    43    22    25 1
    44    23    43 1
    45    23    44 1
    46    23    45 1
    47    24    46 1
    48    24    47 1
    49    24    48 1
    50    25    26 1
    51    25    49 1
    52    25    50 1
    53    26    51 1
    54    26    52 1
    55    26    53 1
@<TRIPOS>SUBSTRUCTURE
     1 GPI         1 TEMP              0 ****  ****    0 ROOT
