@<TRIPOS>MOLECULE
molecule
   16    15     1     0     0
SMALL
bcc


@<TRIPOS>ATOM
      1 P1           0.0000     0.0000     0.0000 p5         1 GPJ       0.946700
      2 O1           1.4800     0.0000     0.0000 o          1 GPJ      -0.866500
      3 O2          -0.5370     0.0000     1.5180 o          1 GPJ      -0.866500
      4 O3          -0.5370    -1.3140    -0.7580 o          1 GPJ      -0.866500
      5 O4          -0.2160     6.3310    -0.7680 o          1 GPJ      -0.829800
      6 O5           0.8490     4.9990     0.6360 o          1 GPJ      -0.829800
      7 C1          -0.6080     1.4890    -0.8590 c3         1 GPJ      -0.050400
      8 C2          -0.5110     3.8840    -0.9330 c3         1 GPJ      -0.020200
      9 C3           0.0900     5.1120    -0.2970 c          1 GPJ       0.871600
     10 N1          -0.0210     2.6850    -0.2400 ny         1 GPJ      -0.670000
     11 H11         -1.6880     1.5350    -0.7820 hx         1 GPJ       0.063700
     12 H12         -0.3220     1.4460    -1.9030 hx         1 GPJ       0.063700
     13 H21         -1.5900     3.9300    -0.8570 hx         1 GPJ       0.070200
     14 H22         -0.2230     3.8400    -1.9770 hx         1 GPJ       0.070200
     15 HN          -0.2870     2.7260     0.7250 hn         1 GPJ       0.456300
     16 HN11         0.9760     2.6420    -0.3100 hn         1 GPJ       0.456300
@<TRIPOS>BOND
     1     1     2 1
     2     1     3 1
     3     1     4 1
     4     1     7 1
     5     5     9 1
     6     6     9 1
     7     7    10 1
     8     7    11 1
     9     7    12 1
    10     8     9 1
    11     8    10 1
    12     8    13 1
    13     8    14 1
    14    10    15 1
    15    10    16 1
@<TRIPOS>SUBSTRUCTURE
     1 GPJ         1 TEMP              0 ****  ****    0 ROOT
