@<TRIPOS>MOLECULE
molecule
   33    34     1     0     0
SMALL
bcc


@<TRIPOS>ATOM
      1 C1           0.0000     0.0000     0.0000 cc         1 GPK       0.007600
      2 F1           2.0340     0.0020    -1.1660 f          1 GPK      -0.130500
      3 C2           1.3500     0.0000     0.0000 cd         1 GPK      -0.031700
      4 C3           2.0400     0.0000     1.2380 c          1 GPK       0.689700
      5 O3           3.2580     0.0010     1.2620 o          1 GPK      -0.594500
      6 N4           1.3360     0.0000     2.3870 ns         1 GPK      -0.556500
      7 C5          -0.0100    -0.0010     2.3600 c          1 GPK       0.810500
      8 O5          -0.6300    -0.0030     3.4060 o          1 GPK      -0.639500
      9 C1'         -2.1430    -0.0010     1.1940 c3         1 GPK       0.343500
     10 N1'         -0.6780    -0.0010     1.1920 n          1 GPK      -0.345000
     11 C2'         -2.6520    -1.3100     1.8040 c3         1 GPK       0.084100
     12 O2'         -2.2260    -2.4110     0.9980 oh         1 GPK      -0.605800
     13 C3'         -4.1820    -1.2770     1.8580 c3         1 GPK       0.107100
     14 O3'         -4.6640    -2.4630     2.4930 oh         1 GPK      -0.601800
     15 C4'         -4.6290    -0.0500     2.6600 c3         1 GPK       0.101100
     16 O4'         -6.0550     0.0300     2.6550 oh         1 GPK      -0.601800
     17 C5'         -4.0420     1.2100     2.0170 c3         1 GPK       0.155100
     18 O5'         -2.6180     1.1010     1.9700 os         1 GPK      -0.393600
     19 C6'         -4.4330     2.4350     2.8450 c3         1 GPK       0.153400
     20 O6'         -3.9870     3.6200     2.1840 oh         1 GPK      -0.602800
     21 H1          -0.5450    -0.0000    -0.9360 h4         1 GPK       0.180000
     22 HN4          1.8160     0.0000     3.2650 hn         1 GPK       0.370500
     23 H1'         -2.5100     0.0890     0.1790 h2         1 GPK       0.070700
     24 H2'         -2.2590    -1.4170     2.8080 h1         1 GPK       0.093700
     25 HO2'        -2.0870    -3.1660     1.5460 ho         1 GPK       0.423000
     26 H3'         -4.5770    -1.2130     0.8510 h1         1 GPK       0.057700
     27 HO3'        -5.2400    -2.9230     1.9050 ho         1 GPK       0.416000
     28 H4'         -4.2690    -0.1350     3.6780 h1         1 GPK       0.068700
     29 HO4'        -6.3900    -0.2880     3.4770 ho         1 GPK       0.417000
     30 H5'         -4.4280     1.3110     1.0090 h1         1 GPK       0.062700
     31 H6'         -5.5110     2.4670     2.9560 h1         1 GPK       0.042200
     32 H6'A        -3.9720     2.3710     3.8230 h1         1 GPK       0.042200
     33 HO6'        -4.2690     4.3770     2.6700 ho         1 GPK       0.407000
@<TRIPOS>BOND
     1     1     3 2
     2     1    10 1
     3     2     3 1
     4     3     4 1
     5     4     5 2
     6     4     6 1
     7     6     7 1
     8     7     8 2
     9     7    10 1
    10     9    10 1
    11     9    11 1
    12     9    18 1
    13    11    12 1
    14    11    13 1
    15    13    14 1
    16    13    15 1
    17    15    16 1
    18    15    17 1
    19    17    18 1
    20    17    19 1
    21    19    20 1
    22     1    21 1
    23     6    22 1
    24     9    23 1
    25    11    24 1
    26    12    25 1
    27    13    26 1
    28    14    27 1
    29    15    28 1
    30    16    29 1
    31    17    30 1
    32    19    31 1
    33    19    32 1
    34    20    33 1
@<TRIPOS>SUBSTRUCTURE
     1 GPK         1 TEMP              0 ****  ****    0 ROOT
