@<TRIPOS>MOLECULE
GPK
   33    34     1     0     0
SMALL
bcc


@<TRIPOS>ATOM
      1 C1           0.0000     0.0000     0.0000 cc         1 GPK      -0.116400
      2 F1           2.0340     0.0020    -1.1660 f          1 GPK      -0.123500
      3 C2           1.3500     0.0000     0.0000 cd         1 GPK      -0.046700
      4 C3           2.0400     0.0000     1.2380 c          1 GPK       0.600700
      5 O3           3.2580     0.0010     1.2620 o          1 GPK      -0.634500
      6 N4           1.3360     0.0000     2.3870 ns         1 GPK      -0.121500
      7 C5          -0.0100    -0.0010     2.3600 c          1 GPK       0.586500
      8 O5          -0.6300    -0.0030     3.4060 o          1 GPK      -0.688500
      9 C1'         -2.1430    -0.0010     1.1940 c3         1 GPK       0.240500
     10 N1'         -0.6780    -0.0010     1.1920 n          1 GPK       0.074000
     11 C2'         -2.6520    -1.3100     1.8040 c3         1 GPK       0.106100
     12 O2'         -2.2260    -2.4110     0.9980 oh         1 GPK      -0.590800
     13 C3'         -4.1820    -1.2770     1.8580 c3         1 GPK       0.148100
     14 O3'         -4.6640    -2.4630     2.4930 oh         1 GPK      -0.584800
     15 C4'         -4.6290    -0.0500     2.6600 c3         1 GPK       0.138100
     16 O4'         -6.0550     0.0300     2.6550 oh         1 GPK      -0.582800
     17 C5'         -4.0420     1.2100     2.0170 c3         1 GPK       0.175100
     18 O5'         -2.6180     1.1010     1.9700 os         1 GPK      -0.373600
     19 C6'         -4.4330     2.4350     2.8450 c3         1 GPK       0.225400
     20 O6'         -3.9870     3.6200     2.1840 oh         1 GPK      -0.586800
     21 H1          -0.5450    -0.0000    -0.9360 h4         1 GPK       0.149000
     22 HN4          1.8160     0.0000     3.2650 hn         1 GPK       0.210500
     23 H1'         -2.5100     0.0890     0.1790 h2         1 GPK       0.033700
     24 H2'         -2.2590    -1.4170     2.8080 h1         1 GPK       0.064700
     25 HO2'        -2.0870    -3.1660     1.5460 ho         1 GPK       0.410000
     26 H3'         -4.5770    -1.2130     0.8510 h1         1 GPK       0.022700
     27 HO3'        -5.2400    -2.9230     1.9050 ho         1 GPK       0.402000
     28 H4'         -4.2690    -0.1350     3.6780 h1         1 GPK       0.033700
     29 HO4'        -6.3900    -0.2880     3.4770 ho         1 GPK       0.402000
     30 H5'         -4.4280     1.3110     1.0090 h1         1 GPK       0.027700
     31 H6'         -5.5110     2.4670     2.9560 h1         1 GPK       0.002700
     32 H6'A        -3.9720     2.3710     3.8230 h1         1 GPK       0.002700
     33 HO6'        -4.2690     4.3770     2.6700 ho         1 GPK       0.393000
@<TRIPOS>BOND
     1     1     3 2   
     2     1    10 1   
     3     1    21 1   
     4     2     3 1   
     5     3     4 1   
     6     4     5 2   
     7     4     6 1   
     8     6     7 1   
     9     6    22 1   
    10     7     8 2   
    11     7    10 1   
    12     9    10 1   
    13     9    11 1   
    14     9    18 1   
    15     9    23 1   
    16    11    12 1   
    17    11    13 1   
    18    11    24 1   
    19    12    25 1   
    20    13    14 1   
    21    13    15 1   
    22    13    26 1   
    23    14    27 1   
    24    15    16 1   
    25    15    17 1   
    26    15    28 1   
    27    16    29 1   
    28    17    18 1   
    29    17    19 1   
    30    17    30 1   
    31    19    20 1   
    32    19    31 1   
    33    19    32 1   
    34    20    33 1   
@<TRIPOS>SUBSTRUCTURE
     1 GPK         1 TEMP              0 ****  ****    0 ROOT
