@<TRIPOS>MOLECULE
molecule
   31    31     1     0     0
SMALL
bcc


@<TRIPOS>ATOM
      1 OXT          0.0000     0.0000     0.0000 oh         1 GPO      -0.597800
      2 C1           1.4290     0.0000     0.0000 c3         1 GPO       0.343900
      3 C2           1.9400     0.0000     1.4430 c3         1 GPO       0.100100
      4 C3           3.4700    -0.0610     1.4340 c3         1 GPO       0.121100
      5 C4           3.9160    -1.3040     0.6600 c3         1 GPO       0.218100
      6 C5           3.3290    -1.2540    -0.7530 c3         1 GPO       0.136100
      7 C6           3.7210    -2.5220    -1.5150 c3         1 GPO       0.185100
      8 C7           3.0160    -2.5400    -2.8720 c3         1 GPO       0.084400
      9 O2           1.4210    -1.1380     2.1340 oh         1 GPO      -0.546800
     10 O3           3.9530    -0.1340     2.7770 oh         1 GPO      -0.517800
     11 O4           5.3440    -1.3330     0.5830 os         1 GPO      -0.543200
     12 O5           1.9050    -1.1670    -0.6730 os         1 GPO      -0.453600
     13 O6           5.1360    -2.5400    -1.7120 oh         1 GPO      -0.534800
     14 O7           3.2890    -3.7770    -3.5340 oh         1 GPO      -0.608800
     15 P            6.2410    -2.4330     1.3430 p5         1 GPO       1.178900
     16 O2A          5.9340    -2.4050     2.7900 o          1 GPO      -0.905833
     17 O3A          5.9130    -3.8940     0.7520 o          1 GPO      -0.905833
     18 O4A          7.8000    -2.1000     1.1190 o          1 GPO      -0.905833
     19 HOXT        -0.3140     0.5340    -0.7110 ho         1 GPO       0.381000
     20 H1           1.7940     0.8830    -0.5100 h2         1 GPO       0.001700
     21 H2           1.6190     0.9080     1.9390 h1         1 GPO       0.001700
     22 H3           3.8630     0.8250     0.9500 h1         1 GPO       0.016700
     23 H4           3.5590    -2.1920     1.1670 h1         1 GPO       0.089700
     24 H5           3.7130    -0.3830    -1.2710 h1         1 GPO       0.025700
     25 H6           3.4250    -3.3930    -0.9430 h1         1 GPO       0.085700
     26 H7           1.9470    -2.4370    -2.7260 h1         1 GPO       0.014200
     27 H7A          3.3780    -1.7180    -3.4780 h1         1 GPO       0.014200
     28 HO2          0.8470    -0.8520     2.8250 ho         1 GPO       0.377000
     29 HO3          4.2070     0.7270     3.0670 ho         1 GPO       0.363000
     30 HO6          5.3730    -3.2970    -2.2230 ho         1 GPO       0.409000
     31 HO7          2.7050    -3.8760    -4.2680 ho         1 GPO       0.371000
@<TRIPOS>BOND
     1     2     1 1
     2     1    19 1
     3    12     2 1
     4     2     3 1
     5     2    20 1
     6     4     3 1
     7     3     9 1
     8     3    21 1
     9     5     4 1
    10    10     4 1
    11     4    22 1
    12     6     5 1
    13     5    11 1
    14     5    23 1
    15     7     6 1
    16     6    12 1
    17     6    24 1
    18    13     7 1
    19     8     7 1
    20     7    25 1
    21     8    14 1
    22     8    26 1
    23     8    27 1
    24     9    28 1
    25    10    29 1
    26    15    11 1
    27    13    30 1
    28    14    31 1
    29    16    15 1
    30    18    15 1
    31    15    17 1
@<TRIPOS>SUBSTRUCTURE
     1 GPO         1 TEMP              0 ****  ****    0 ROOT
