@<TRIPOS>MOLECULE
GPO
   31    31     1     0     0
SMALL
bcc


@<TRIPOS>ATOM
      1 OXT         0.0970    0.0750   -0.2310 oh        1 GPO     -0.622800
      2 C1          1.4960    0.1890   -0.1230 c3        1 GPO      0.330900
      3 C2          1.9630    0.2190    1.3420 c3        1 GPO      0.084100
      4 C3          3.4850    0.0250    1.4160 c3        1 GPO      0.103100
      5 C4          3.9470   -1.2030    0.5870 c3        1 GPO      0.182100
      6 C5          3.3660   -1.1160   -0.8440 c3        1 GPO      0.096100
      7 C6          3.6220   -2.4220   -1.6220 c3        1 GPO      0.143100
      8 C7          2.7560   -2.4900   -2.8850 c3        1 GPO      0.136400
      9 O2          1.2410   -0.7600    2.0710 oh        1 GPO     -0.634800
     10 O3          3.8080   -0.1100    2.7820 oh        1 GPO     -0.679800
     11 O4          5.3180   -1.2190    0.5460 os        1 GPO     -0.556200
     12 O5          1.9370   -0.9550   -0.8290 os        1 GPO     -0.469600
     13 O6          4.9620   -2.4710   -2.0620 oh        1 GPO     -0.673800
     14 O7          3.1020   -3.5880   -3.7130 oh        1 GPO     -0.650800
     15 P           6.0260   -2.5850    1.3670 p5        1 GPO      1.321900
     16 O2A         5.2220   -2.5280    2.6430 o         1 GPO     -0.910500
     17 O3A         5.6010   -3.6340    0.3700 o         1 GPO     -0.910500
     18 O4A         7.4810   -2.2650    1.4560 o         1 GPO     -0.910500
     19 HOXT       -0.1460   -0.7400    0.2300 ho        1 GPO      0.421000
     20 H1          1.7840    1.1330   -0.6620 h2        1 GPO      0.043700
     21 H2          1.6740    1.2110    1.7900 h1        1 GPO      0.032700
     22 H3          3.9880    0.9520    1.0240 h1        1 GPO      0.028700
     23 H4          3.5420   -2.1370    1.0830 h1        1 GPO      0.059700
     24 H5          3.8240   -0.2490   -1.3920 h1        1 GPO      0.034700
     25 H6          3.4080   -3.3020   -0.9510 h1        1 GPO      0.081700
     26 H7          2.8710   -1.5470   -3.4830 h1        1 GPO      0.026200
     27 H7A         1.6790   -2.6320   -2.6120 h1        1 GPO      0.026200
     28 HO2         1.8930   -1.3660    2.4550 ho        1 GPO      0.441000
     29 HO3         4.4340   -0.8770    2.8700 ho        1 GPO      0.500000
     30 HO6         5.5000   -2.7020   -1.2600 ho        1 GPO      0.502000
     31 HO7         4.0380   -3.7760   -3.5540 ho        1 GPO      0.425000
@<TRIPOS>BOND
     1    1    2 1   
     2    1   19 1   
     3    2    3 1   
     4    2   12 1   
     5    2   20 1   
     6    3    4 1   
     7    3    9 1   
     8    3   21 1   
     9    4    5 1   
    10    4   10 1   
    11    4   22 1   
    12    5    6 1   
    13    5   11 1   
    14    5   23 1   
    15    6    7 1   
    16    6   12 1   
    17    6   24 1   
    18    7    8 1   
    19    7   13 1   
    20    7   25 1   
    21    8   14 1   
    22    8   26 1   
    23    8   27 1   
    24    9   28 1   
    25   10   29 1   
    26   11   15 1   
    27   13   30 1   
    28   14   31 1   
    29   15   16 1   
    30   15   17 1   
    31   15   18 1   
@<TRIPOS>SUBSTRUCTURE
     1 GPO         1 TEMP              0 ****  ****    0 ROOT
