@<TRIPOS>MOLECULE
molecule
   36    35     1     0     0
SMALL
bcc


@<TRIPOS>ATOM
      1 C1           0.0000     0.0000     0.0000 c3         1 GPP       0.171600
      2 O1           1.4280     0.0000     0.0000 os         1 GPP      -0.496200
      3 C2          -0.5020     0.0000     1.4210 c2         1 GPP      -0.502200
      4 C3          -1.4820     0.7960     1.7690 c2         1 GPP      -0.079400
      5 C4          -2.1930     1.6170     0.7250 c3         1 GPP      -0.108900
      6 C5          -1.9000     0.8900     3.2130 c3         1 GPP      -0.014200
      7 C6          -1.0990     1.9930     3.9060 c3         1 GPP      -0.046200
      8 C7          -1.5170     2.0860     5.3510 c2         1 GPP      -0.162200
      9 C8          -0.6170     2.0060     6.2990 c2         1 GPP      -0.167400
     10 C9          -1.0450     1.9720     7.7440 c3         1 GPP      -0.045400
     11 C10          0.8470     1.9470     5.9460 c3         1 GPP      -0.045400
     12 PA           1.8930     0.0010    -1.5420 p5         1 GPP       1.225800
     13 O1A          1.3680    -1.2080    -2.2150 o          1 GPP      -0.789500
     14 O2A          1.3230     1.3150    -2.2740 o          1 GPP      -0.789500
     15 O3A          3.5010     0.0000    -1.6160 os         1 GPP      -0.641800
     16 PB           3.8940    -0.0000    -3.1780 p5         1 GPP       1.175900
     17 O1B          3.3380     1.2090    -3.8270 o          1 GPP      -0.902500
     18 O2B          5.4970    -0.0000    -3.3280 o          1 GPP      -0.902500
     19 O3B          3.2900    -1.3130    -3.8840 o          1 GPP      -0.902500
     20 H11         -0.3610     0.8850    -0.5110 h1         1 GPP       0.041700
     21 H12         -0.3610    -0.8850    -0.5110 h1         1 GPP       0.041700
     22 H2          -0.9940    -0.5690     0.6410 ha         1 GPP       0.349000
     23 H41         -2.5280     0.9700    -0.0770 hc         1 GPP       0.035700
     24 H42         -3.0480     2.1090     1.1730 hc         1 GPP       0.035700
     25 H43         -1.5150     2.3620     0.3280 hc         1 GPP       0.035700
     26 H51         -2.9570     1.1220     3.2690 hc         1 GPP       0.024200
     27 H52         -1.7120    -0.0570     3.7060 hc         1 GPP       0.024200
     28 H61         -1.2870     2.9400     3.4140 hc         1 GPP       0.064700
     29 H62         -0.0420     1.7610     3.8500 hc         1 GPP       0.064700
     30 H7          -2.5690     2.1280     5.6070 ha         1 GPP       0.099000
     31 H91         -1.5460     2.8990     7.9940 hc         1 GPP       0.034200
     32 H92         -1.7230     1.1420     7.9000 hc         1 GPP       0.034200
     33 H93         -0.1730     1.8500     8.3750 hc         1 GPP       0.034200
     34 H101         1.0640     1.0020     5.4620 hc         1 GPP       0.034200
     35 H102         1.0890     2.7610     5.2730 hc         1 GPP       0.034200
     36 H103         1.4400     2.0360     6.8480 hc         1 GPP       0.034200
@<TRIPOS>BOND
     1     1     2 1
     2     1     3 1
     3     1    20 1
     4     1    21 1
     5     2    12 1
     6     3     4 2
     7     3    22 1
     8     4     5 1
     9     4     6 1
    10     5    23 1
    11     5    24 1
    12     5    25 1
    13     6     7 1
    14     6    26 1
    15     6    27 1
    16     7     8 1
    17     7    28 1
    18     7    29 1
    19     8     9 2
    20     8    30 1
    21     9    10 1
    22     9    11 1
    23    10    31 1
    24    10    32 1
    25    10    33 1
    26    11    34 1
    27    11    35 1
    28    11    36 1
    29    12    13 1
    30    12    14 1
    31    12    15 1
    32    15    16 1
    33    16    17 1
    34    16    18 1
    35    16    19 1
@<TRIPOS>SUBSTRUCTURE
     1 GPP         1 TEMP              0 ****  ****    0 ROOT
