@<TRIPOS>MOLECULE
GPQ
   33    34     1     0     0
SMALL
bcc


@<TRIPOS>ATOM
      1 N1           0.0000     0.0000     0.0000 n          1 GPQ       0.076000
      2 Cl1         -0.8910    -0.0070     3.8580 cl         1 GPQ       0.044600
      3 C2           1.3450     0.0000     0.0000 c          1 GPQ       0.592500
      4 O2           1.9440     0.0030    -1.0580 o          1 GPQ      -0.693500
      5 N3           2.0380     0.0000     1.1540 ns         1 GPQ      -0.120500
      6 C4           1.3890    -0.0020     2.3360 c          1 GPQ       0.618700
      7 O4           2.0150    -0.0030     3.3810 o          1 GPQ      -0.645500
      8 C5          -0.0270    -0.0030     2.3510 cc         1 GPQ      -0.246800
      9 C6          -0.6970    -0.0020     1.1790 cd         1 GPQ      -0.084400
     10 C1'         -0.7260     0.0090    -1.2720 c3         1 GPQ       0.209500
     11 C2'         -1.5090    -1.3000    -1.4220 c3         1 GPQ       0.127100
     12 O2'         -0.5980    -2.3990    -1.4560 oh         1 GPQ      -0.570800
     13 C3'         -2.3120    -1.2580    -2.7250 c3         1 GPQ       0.146100
     14 O3'         -3.1030    -2.4430    -2.8370 oh         1 GPQ      -0.587800
     15 C4'         -3.2290    -0.0310    -2.7090 c3         1 GPQ       0.137100
     16 O4'         -3.9300     0.0580    -3.9510 oh         1 GPQ      -0.577800
     17 C5'         -2.3800     1.2280    -2.5100 c3         1 GPQ       0.174100
     18 O5'         -1.6350     1.1110    -1.2960 os         1 GPQ      -0.398600
     19 C6'         -3.2930     2.4520    -2.4320 c3         1 GPQ       0.225400
     20 O6'         -2.4970     3.6370    -2.3630 oh         1 GPQ      -0.580800
     21 HN3          3.0390     0.0000     1.1350 hn         1 GPQ       0.209500
     22 H6          -1.7800    -0.0010     1.1710 h4         1 GPQ       0.146000
     23 H1'         -0.0250     0.1030    -2.0930 h2         1 GPQ       0.081700
     24 H2'         -2.1870    -1.4110    -0.5840 h1         1 GPQ       0.021700
     25 HO2'        -0.9980    -3.1520    -1.0540 ho         1 GPQ       0.404000
     26 H3'         -1.6320    -1.1890    -3.5650 h1         1 GPQ       0.033700
     27 HO3'        -2.8950    -2.8840    -3.6440 ho         1 GPQ       0.406000
     28 H4'         -3.9370    -0.1210    -1.8940 h1         1 GPQ       0.021700
     29 HO4'        -4.8330    -0.1790    -3.8190 ho         1 GPQ       0.401000
     30 H5'         -1.6950     1.3350    -3.3430 h1         1 GPQ       0.038700
     31 H6'         -3.9220     2.4900    -3.3130 h1         1 GPQ      -0.000800
     32 H6'A        -3.9150     2.3830    -1.5470 h1         1 GPQ      -0.000800
     33 HO6'        -3.0490     4.3930    -2.4760 ho         1 GPQ       0.392000
@<TRIPOS>BOND
     1     1     3 1   
     2     1     9 1   
     3     1    10 1   
     4     2     8 1   
     5     3     4 2   
     6     3     5 1   
     7     5     6 1   
     8     5    21 1   
     9     6     7 2   
    10     6     8 1   
    11     8     9 2   
    12     9    22 1   
    13    10    11 1   
    14    10    18 1   
    15    10    23 1   
    16    11    12 1   
    17    11    13 1   
    18    11    24 1   
    19    12    25 1   
    20    13    14 1   
    21    13    15 1   
    22    13    26 1   
    23    14    27 1   
    24    15    16 1   
    25    15    17 1   
    26    15    28 1   
    27    16    29 1   
    28    17    18 1   
    29    17    19 1   
    30    17    30 1   
    31    19    20 1   
    32    19    31 1   
    33    19    32 1   
    34    20    33 1   
@<TRIPOS>SUBSTRUCTURE
     1 GPQ         1 TEMP              0 ****  ****    0 ROOT
