@<TRIPOS>MOLECULE
molecule
   61    63     1     0     0
SMALL
bcc


@<TRIPOS>ATOM
      1 N1           0.0000     0.0000     0.0000 nz         1 GPR      -0.791600
      2 CA1          1.4680     0.0000     0.0000 c3         1 GPR      -0.020500
      3 C1           1.9710     0.0000     1.4210 c          1 GPR       0.871600
      4 O11          3.1430    -0.5810     1.7190 o          1 GPR      -0.781800
      5 O12          1.3180     0.5230     2.2930 o          1 GPR      -0.781800
      6 CB1          1.9770     1.2490    -0.7200 c3         1 GPR      -0.075400
      7 CG1          1.4680     1.2500    -2.1630 c3         1 GPR      -0.181400
      8 CD1          1.9700     2.4810    -2.8730 c          1 GPR       0.667100
      9 OE1          2.6660     3.2800    -2.2830 o          1 GPR      -0.588100
     10 N2           1.6440     2.6930    -4.1630 ns         1 GPR      -0.577900
     11 CA2          2.1330     3.8900    -4.8530 c3         1 GPR       0.054700
     12 C2           1.1400     5.0100    -4.6800 c          1 GPR       0.634100
     13 O2           1.5210     6.1610    -4.6640 o          1 GPR      -0.625100
     14 CB2          2.3030     3.5850    -6.3430 c3         1 GPR       0.002700
     15 SG2          3.4970     2.2380    -6.5510 ss         1 GPR      -0.331200
     16 N3          -0.1720     4.7320    -4.5430 ns         1 GPR      -0.543900
     17 CA3         -1.1370     5.8220    -4.3740 c3         1 GPR      -0.005000
     18 C3          -2.5240     5.2470    -4.2440 c          1 GPR       0.884600
     19 O31         -3.5760     6.0650    -4.0790 o          1 GPR      -0.848300
     20 O32         -2.6890     4.0510    -4.2870 o          1 GPR      -0.848300
     21 CA4          3.5010     2.0960    -8.3600 c3         1 GPR       0.061700
     22 CB4          2.1090     1.7760    -8.8340 ca         1 GPR      -0.065300
     23 CG4          1.2650     2.7880    -9.2480 ca         1 GPR      -0.125000
     24 CD4         -0.0240     2.4920    -9.6530 ca         1 GPR      -0.113000
     25 CE4         -0.4790     1.1860    -9.6370 ca         1 GPR      -0.124000
     26 CZ4          0.3580     0.1660    -9.2270 ca         1 GPR      -0.116000
     27 CH4          1.6620     0.4570    -8.8450 ca         1 GPR      -0.022000
     28 CH5          2.5880    -0.6190    -8.4160 ca         1 GPR       0.003000
     29 CZ5          2.1110    -1.8780    -8.0720 ca         1 GPR      -0.123000
     30 CE5          2.9950    -2.8600    -7.6710 ca         1 GPR      -0.124000
     31 CD5          4.3500    -2.5910    -7.6140 ca         1 GPR      -0.133000
     32 CG5          4.8300    -1.3430    -7.9660 ca         1 GPR      -0.110000
     33 CB5          3.9560    -0.3550    -8.3740 ca         1 GPR      -0.081300
     34 CA5          4.4750     0.9980    -8.7770 c3         1 GPR       0.217400
     35 O5           4.6450     1.0340   -10.1950 oh         1 GPR      -0.587800
     36 HN11        -0.3340     0.9380     0.0980 hn         1 GPR       0.440467
     37 HN12        -0.3340    -0.5540     0.7630 hn         1 GPR       0.440467
     38 HA1          1.8300    -0.8840    -0.5110 hx         1 GPR       0.096700
     39 HB11         3.0610     1.2500    -0.7200 hc         1 GPR       0.102700
     40 HB12         1.6150     2.1330    -0.2100 hc         1 GPR       0.102700
     41 HG11         0.3850     1.2490    -2.1640 hc         1 GPR       0.049200
     42 HG12         1.8300     0.3660    -2.6740 hc         1 GPR       0.049200
     43 HN2          1.1180     2.0060    -4.6660 hn         1 GPR       0.321500
     44 HA2          3.0870     4.1850    -4.4340 h1         1 GPR       0.115700
     45 HB21         1.3490     3.2900    -6.7620 h1         1 GPR       0.080200
     46 HB22         2.6640     4.4700    -6.8530 h1         1 GPR       0.080200
     47 HN3         -0.4900     3.7840    -4.5860 hn         1 GPR       0.326500
     48 HA31        -0.8940     6.3850    -3.4820 h1         1 GPR       0.051200
     49 HA32        -1.0980     6.4760    -5.2370 h1         1 GPR       0.051200
     50 HA4          3.8170     3.0360    -8.7950 h1         1 GPR       0.081700
     51 HG4          1.6160     3.8130    -9.2640 ha         1 GPR       0.135000
     52 HD4         -0.6830     3.2880    -9.9750 ha         1 GPR       0.138000
     53 HE4         -1.4900     0.9610    -9.9550 ha         1 GPR       0.133000
     54 HZ4          0.0020    -0.8570    -9.2140 ha         1 GPR       0.130000
     55 HZ5          1.0440    -2.0600    -8.0320 ha         1 GPR       0.133000
     56 HE5          2.6260    -3.8420    -7.3990 ha         1 GPR       0.126000
     57 HD5          5.0400    -3.3630    -7.2930 ha         1 GPR       0.127000
     58 HG5          5.8930    -1.1410    -7.9220 ha         1 GPR       0.127000
     59 HA5          5.4300     1.1700    -8.2950 h1         1 GPR       0.050700
     60 HO5          5.5490     1.2090   -10.3990 ho         1 GPR       0.399000
     61 H13         -0.3340    -0.3830    -0.8620 hn         1 GPR       0.440467
@<TRIPOS>BOND
     1     1     2 1
     2     1    36 1
     3     1    37 1
     4     2     3 1
     5     2     6 1
     6     2    38 1
     7     3     4 1
     8     3     5 1
     9     6     7 1
    10     6    39 1
    11     6    40 1
    12     7     8 1
    13     7    41 1
    14     7    42 1
    15     8     9 2
    16     8    10 1
    17    10    11 1
    18    10    43 1
    19    11    12 1
    20    11    14 1
    21    11    44 1
    22    12    13 2
    23    12    16 1
    24    14    15 1
    25    14    45 1
    26    14    46 1
    27    15    21 1
    28    16    17 1
    29    16    47 1
    30    17    18 1
    31    17    48 1
    32    17    49 1
    33    18    19 1
    34    18    20 1
    35    21    22 1
    36    21    34 1
    37    21    50 1
    38    22    23 ar
    39    22    27 ar
    40    23    24 ar
    41    23    51 1
    42    24    25 ar
    43    24    52 1
    44    25    26 ar
    45    25    53 1
    46    26    27 ar
    47    26    54 1
    48    27    28 1
    49    28    29 ar
    50    28    33 ar
    51    29    30 ar
    52    29    55 1
    53    30    31 ar
    54    30    56 1
    55    31    32 ar
    56    31    57 1
    57    32    33 ar
    58    32    58 1
    59    33    34 1
    60    34    35 1
    61    34    59 1
    62    35    60 1
    63    61     1 1
@<TRIPOS>SUBSTRUCTURE
     1 GPR         1 TEMP              0 ****  ****    0 ROOT
