@<TRIPOS>MOLECULE
molecule
   61    63     1     0     0
SMALL
bcc


@<TRIPOS>ATOM
      1 C1           0.0000     0.0000     0.0000 c          1 GPS       0.898600
      2 N1           1.9970     1.1980    -0.6930 nz         1 GPS      -0.806600
      3 C2           6.0220     1.1940     4.9660 c          1 GPS       0.577100
      4 N2           5.3660    -0.2280     3.1120 ns         1 GPS      -0.550900
      5 C3           7.1350     2.8240     8.0940 c          1 GPS       0.935600
      6 O5          10.0470    -5.2030     3.4660 oh         1 GPS      -0.586800
      7 O11         -0.6720    -1.1450     0.2030 o          1 GPS      -0.780300
      8 O12         -0.6030     1.0300    -0.1860 o          1 GPS      -0.780300
      9 O31          7.3630     3.9880     8.7230 o          1 GPS      -0.834800
     10 O32          7.3370     1.7790     8.6660 o          1 GPS      -0.834800
     11 CA1          1.5070     0.0000     0.0000 c3         1 GPS      -0.054500
     12 CA2          5.8550    -0.2280     4.4930 c3         1 GPS       0.060700
     13 CA3          6.6280     2.8210     6.6750 c3         1 GPS      -0.213000
     14 CA4          8.6760    -3.3390     4.1350 c3         1 GPS       0.061700
     15 CA5          8.6940    -4.7560     3.5680 c3         1 GPS       0.218400
     16 CB1          2.0180     0.0000     1.4430 c3         1 GPS      -0.118400
     17 CB2          7.2020    -0.9490     4.5570 c3         1 GPS       0.007700
     18 CB4          9.0860    -3.3370     5.5820 ca         1 GPS      -0.067300
     19 CB5          7.9280    -5.6970     4.4570 ca         1 GPS      -0.081300
     20 CD1          4.0450    -0.1260     2.8640 c          1 GPS       0.662100
     21 CD4         10.1840    -2.2860     7.4310 ca         1 GPS      -0.106000
     22 CD5          6.5100    -7.6080     4.7320 ca         1 GPS      -0.134000
     23 OE1          3.2610    -0.0340     3.7850 o          1 GPS      -0.544100
     24 CE4          9.8070    -3.3250     8.2610 ca         1 GPS      -0.122000
     25 CE5          6.5490    -7.4510     6.1060 ca         1 GPS      -0.120000
     26 CG1          3.5430    -0.1260     1.4440 c3         1 GPS      -0.248400
     27 SG2          7.0000    -2.6600     3.9880 ss         1 GPS      -0.343200
     28 CG4          9.8250    -2.2900     6.0960 ca         1 GPS      -0.126000
     29 CG5          7.1980    -6.7340     3.9100 ca         1 GPS      -0.111000
     30 CH4          8.7180    -4.3930     6.4120 ca         1 GPS      -0.021000
     31 CH5          7.9550    -5.5280     5.8400 ca         1 GPS       0.007000
     32 CZ4          9.0740    -4.3820     7.7570 ca         1 GPS      -0.114000
     33 CZ5          7.2690    -6.4130     6.6650 ca         1 GPS      -0.118000
     34 HN1          1.4880     1.3220    -1.5460 hn         1 GPS       0.435800
     35 HN1A         2.9710     1.0900    -0.8990 hn         1 GPS       0.435800
     36 HN2          6.0110    -0.3350     2.3530 hn         1 GPS       0.313500
     37 HN3          6.6790     0.6790     6.8290 hn         1 GPS       0.335500
     38 HO5         10.2950    -5.2520     2.5570 ho         1 GPS       0.396000
     39 HA1          1.8680    -0.8850    -0.5100 hx         1 GPS       0.081700
     40 HA2          5.1420    -0.7380     5.1280 h1         1 GPS       0.103700
     41 HA3          5.9330     3.3900     6.0700 h1         1 GPS       0.132200
     42 HA3A         5.8190     2.1530     6.9430 h1         1 GPS       0.132200
     43 HA4          9.3940    -2.7470     3.5810 h1         1 GPS       0.074700
     44 HA5          8.2410    -4.7490     2.5840 h1         1 GPS       0.043700
     45 HB1          2.6720     0.8470     1.6080 hc         1 GPS       0.178700
     46 HB1A         2.5530    -0.9270     1.2770 hc         1 GPS       0.178700
     47 HB2          7.9160    -0.4390     3.9210 h1         1 GPS       0.080700
     48 HB2A         7.5640    -0.9490     5.5780 h1         1 GPS       0.080700
     49 HD4         10.7600    -1.4590     7.8310 ha         1 GPS       0.144000
     50 HD5          5.9450    -8.4230     4.2980 ha         1 GPS       0.126000
     51 HE4         10.0930    -3.3150     9.3060 ha         1 GPS       0.133000
     52 HE5          6.0080    -8.1400     6.7440 ha         1 GPS       0.127000
     53 HG1          3.9750     0.7110     0.9080 hc         1 GPS       0.021200
     54 HG1A         3.8290    -1.0510     0.9590 hc         1 GPS       0.021200
     55 HG4         10.1240    -1.4710     5.4520 ha         1 GPS       0.132000
     56 HG5          7.1630    -6.8620     2.8350 ha         1 GPS       0.123000
     57 HZ4          8.7770    -5.1980     8.4050 ha         1 GPS       0.130000
     58 HZ5          7.3000    -6.2900     7.7400 ha         1 GPS       0.136000
     59 N3           6.4650     1.4400     6.2150 ns         1 GPS      -0.501900
     60 H13          1.8560     2.0010    -0.1120 hn         1 GPS       0.435800
     61 O2           5.7600     2.1150     4.2230 o          1 GPS      -0.644100
@<TRIPOS>BOND
     1     7     1 1
     2     1    11 1
     3     1     8 1
     4     2    11 1
     5     2    34 1
     6     2    35 1
     7    12     3 1
     8     3    59 1
     9     3    61 2
    10    20     4 1
    11     4    12 1
    12     4    36 1
    13     9     5 1
    14    13     5 1
    15     5    10 1
    16    59    13 1
    17    59    37 1
    18     6    15 1
    19     6    38 1
    20    11    16 1
    21    11    39 1
    22    12    17 1
    23    12    40 1
    24    13    41 1
    25    13    42 1
    26    18    14 1
    27    14    27 1
    28    14    15 1
    29    14    43 1
    30    15    19 1
    31    15    44 1
    32    16    26 1
    33    16    45 1
    34    16    46 1
    35    27    17 1
    36    17    47 1
    37    17    48 1
    38    28    18 ar
    39    18    30 ar
    40    31    19 ar
    41    19    29 ar
    42    26    20 1
    43    23    20 2
    44    21    28 ar
    45    21    24 ar
    46    21    49 1
    47    29    22 ar
    48    25    22 ar
    49    22    50 1
    50    24    32 ar
    51    24    51 1
    52    33    25 ar
    53    25    52 1
    54    26    53 1
    55    26    54 1
    56    28    55 1
    57    29    56 1
    58    32    30 ar
    59    30    31 1
    60    31    33 ar
    61    32    57 1
    62    33    58 1
    63    60     2 1
@<TRIPOS>SUBSTRUCTURE
     1 GPS         1 TEMP              0 ****  ****    0 ROOT
