@<TRIPOS>MOLECULE
GPT
   43    44     1     0     0
SMALL
bcc


@<TRIPOS>ATOM
      1 C1           0.0000     0.0000     0.0000 c3         1 GPT       0.181900
      2 C2           1.5300     0.0000     0.0000 c3         1 GPT      -0.034400
      3 C3           2.0400     0.0000     1.4430 c3         1 GPT      -0.138700
      4 C4           3.5810     0.1260     1.4720 c3         1 GPT       0.186800
      5 C6           4.0070     1.5720     1.7320 c3         1 GPT      -0.051100
      6 F21         -0.4660    -0.0000    -1.3190 f          1 GPT      -0.238300
      7 C19          1.7640    -1.3340     2.1020 c          1 GPT       0.644500
      8 O20          0.7160    -1.9390     2.0330 o          1 GPT      -0.665500
      9 N18          2.8510    -1.7510     2.7750 ns         1 GPT      -0.184900
     10 C7           3.9480    -0.7820     2.6660 c3         1 GPT      -0.154600
     11 C16          5.2490    -1.4960     2.3980 c          1 GPT       0.660900
     12 O17          6.1910    -1.3330     3.1370 o          1 GPT      -0.543100
     13 C8           4.0530     0.0460     3.9480 c3         1 GPT       0.189100
     14 O15          2.8300     0.7550     4.1580 oh         1 GPT      -0.583800
     15 C9           4.3140    -0.8830     5.1360 c3         1 GPT      -0.043500
     16 C14          4.7570    -0.0530     6.3430 c3         1 GPT      -0.018400
     17 C13          4.7610    -0.9580     7.5800 c3         1 GPT      -0.022400
     18 C12          3.3150    -1.3450     7.9010 c3         1 GPT       0.021800
     19 C11          2.6270    -1.8430     6.6650 c2         1 GPT      -0.133200
     20 C10          3.0580    -1.6380     5.4610 c2         1 GPT      -0.191200
     21 O5           4.1580    -0.3640     0.2600 oh         1 GPT      -0.581800
     22 H1          -0.3610     0.8850     0.5110 h1         1 GPT       0.030700
     23 H1A         -0.3610    -0.8840     0.5110 h1         1 GPT       0.030700
     24 H2           1.8910    -0.8850    -0.5110 hc         1 GPT       0.032700
     25 H2A          1.8910     0.8850    -0.5110 hc         1 GPT       0.032700
     26 H3           1.5860     0.8020     2.0120 hc         1 GPT       0.076700
     27 H6           5.0250     1.5880     2.1040 hc         1 GPT       0.026033
     28 H6A          3.9510     2.1360     0.8090 hc         1 GPT       0.026033
     29 H6B          3.3470     2.0160     2.4670 hc         1 GPT       0.026033
     30 HN18         2.9050    -2.6110     3.2830 hn         1 GPT       0.215500
     31 H16          5.3290    -2.1800     1.5620 h4         1 GPT      -0.009800
     32 H8           4.8700     0.7530     3.8570 h1         1 GPT       0.028700
     33 HO15         3.0100     1.5680     4.6010 ho         1 GPT       0.397000
     34 H9           5.0970    -1.5870     4.8810 hc         1 GPT       0.063700
     35 H14          5.7540     0.3330     6.1720 hc         1 GPT       0.015200
     36 H14A         4.0640     0.7660     6.4940 hc         1 GPT       0.015200
     37 H13          5.3400    -1.8500     7.3760 hc         1 GPT       0.016700
     38 H13A         5.1890    -0.4240     8.4200 hc         1 GPT       0.016700
     39 H12          2.7880    -0.4770     8.2790 hc         1 GPT       0.018700
     40 H12A         3.3130    -2.1270     8.6510 hc         1 GPT       0.018700
     41 H11          1.7120    -2.4100     6.7860 ha         1 GPT       0.097000
     42 H10          2.4770    -2.0370     4.6390 ha         1 GPT       0.122000
     43 HO5          4.8070     0.2470    -0.0490 ho         1 GPT       0.404000
@<TRIPOS>BOND
     1     1     2 1   
     2     1     6 1   
     3     1    22 1   
     4     1    23 1   
     5     2     3 1   
     6     2    24 1   
     7     2    25 1   
     8     3     4 1   
     9     3     7 1   
    10     3    26 1   
    11     4     5 1   
    12     4    10 1   
    13     4    21 1   
    14     5    27 1   
    15     5    28 1   
    16     5    29 1   
    17     7     8 2   
    18     7     9 1   
    19     9    10 1   
    20     9    30 1   
    21    10    11 1   
    22    10    13 1   
    23    11    12 2   
    24    11    31 1   
    25    13    14 1   
    26    13    15 1   
    27    13    32 1   
    28    14    33 1   
    29    15    16 1   
    30    15    20 1   
    31    15    34 1   
    32    16    17 1   
    33    16    35 1   
    34    16    36 1   
    35    17    18 1   
    36    17    37 1   
    37    17    38 1   
    38    18    19 1   
    39    18    39 1   
    40    18    40 1   
    41    19    20 2   
    42    19    41 1   
    43    20    42 1   
    44    21    43 1   
@<TRIPOS>SUBSTRUCTURE
     1 GPT         1 TEMP              0 ****  ****    0 ROOT
