@<TRIPOS>MOLECULE
molecule
   33    34     1     0     0
SMALL
bcc


@<TRIPOS>ATOM
      1 N1           0.0000     0.0000     0.0000 n          1 GPU      -0.345000
      2 Br1         -0.9700    -0.0020     3.9910 br         1 GPU      -0.015700
      3 C2           1.3450     0.0000     0.0000 c          1 GPU       0.820500
      4 O2           1.9450     0.0010    -1.0570 o          1 GPU      -0.639500
      5 N3           2.0370     0.0000     1.1550 ns         1 GPU      -0.554500
      6 C4           1.3870    -0.0010     2.3360 c          1 GPU       0.712700
      7 O4           2.0120    -0.0000     3.3820 o          1 GPU      -0.598500
      8 C5          -0.0290    -0.0010     2.3510 cc         1 GPU      -0.242500
      9 C6          -0.6980    -0.0010     1.1770 cd         1 GPU       0.079600
     10 C1'         -0.7250     0.0060    -1.2740 c3         1 GPU       0.319500
     11 C2'         -1.5070    -1.3020    -1.4210 c3         1 GPU       0.096100
     12 O2'         -0.5960    -2.4020    -1.4550 oh         1 GPU      -0.586800
     13 C3'         -2.3100    -1.2630    -2.7260 c3         1 GPU       0.109100
     14 O3'         -3.1000    -2.4480    -2.8360 oh         1 GPU      -0.604800
     15 C4'         -3.2260    -0.0350    -2.7110 c3         1 GPU       0.098100
     16 O4'         -3.9270     0.0510    -3.9540 oh         1 GPU      -0.597800
     17 C5'         -2.3770     1.2230    -2.5140 c3         1 GPU       0.152100
     18 O5'         -1.6340     1.1080    -1.2980 os         1 GPU      -0.417600
     19 C6'         -3.2910     2.4490    -2.4390 c3         1 GPU       0.152400
     20 O6'         -2.4950     3.6330    -2.3700 oh         1 GPU      -0.596800
     21 HN3          3.0380     0.0000     1.1360 hn         1 GPU       0.370500
     22 H6          -1.7820    -0.0010     1.1680 h4         1 GPU       0.179000
     23 H1'         -0.0230     0.1000    -2.0940 h2         1 GPU       0.115700
     24 H2'         -2.1860    -1.4130    -0.5840 h1         1 GPU       0.053700
     25 HO2'        -0.9950    -3.1540    -1.0480 ho         1 GPU       0.420000
     26 H3'         -1.6300    -1.1950    -3.5660 h1         1 GPU       0.068700
     27 HO3'        -2.9080    -2.8800    -3.6520 ho         1 GPU       0.420000
     28 H4'         -3.9340    -0.1240    -1.8960 h1         1 GPU       0.056700
     29 HO4'        -4.8310    -0.1840    -3.8230 ho         1 GPU       0.416000
     30 H5'         -1.6920     1.3290    -3.3460 h1         1 GPU       0.073700
     31 H6'         -3.9140     2.3810    -1.5550 h1         1 GPU       0.038700
     32 H6'A        -3.9190     2.4860    -3.3210 h1         1 GPU       0.038700
     33 HO6'        -3.0390     4.3870    -2.5290 ho         1 GPU       0.407000
@<TRIPOS>BOND
     1     1     3 1
     2     1     9 1
     3     1    10 1
     4     2     8 1
     5     3     4 2
     6     3     5 1
     7     5     6 1
     8     6     7 2
     9     6     8 1
    10     8     9 2
    11    10    11 1
    12    10    18 1
    13    11    12 1
    14    11    13 1
    15    13    14 1
    16    13    15 1
    17    15    16 1
    18    15    17 1
    19    17    18 1
    20    17    19 1
    21    19    20 1
    22     5    21 1
    23     9    22 1
    24    10    23 1
    25    11    24 1
    26    12    25 1
    27    13    26 1
    28    14    27 1
    29    15    28 1
    30    16    29 1
    31    17    30 1
    32    19    31 1
    33    19    32 1
    34    20    33 1
@<TRIPOS>SUBSTRUCTURE
     1 GPU         1 TEMP              0 ****  ****    0 ROOT
