@<TRIPOS>MOLECULE
molecule
   33    34     1     0     0
SMALL
bcc


@<TRIPOS>ATOM
      1 I            0.0000     0.0000     0.0000 i          1 GPV      -0.086800
      2 N1           4.3030     0.0000     0.0000 n          1 GPV      -0.346000
      3 C2           4.6380     0.0000     1.3040 c          1 GPV       0.820500
      4 O2           5.8120    -0.0000     1.6200 o          1 GPV      -0.639500
      5 N3           3.6920    -0.0000     2.2600 ns         1 GPV      -0.554500
      6 C4           2.3850    -0.0000     1.9260 c          1 GPV       0.714700
      7 O4           1.5290     0.0010     2.7910 o          1 GPV      -0.601500
      8 C5           2.0190     0.0000     0.5570 cc         1 GPV      -0.172400
      9 C6           2.9890     0.0000    -0.3820 cd         1 GPV       0.087600
     10 C1'          5.3550     0.0060    -1.0190 c3         1 GPV       0.319500
     11 C2'          5.3040    -1.3010    -1.8140 c3         1 GPV       0.094100
     12 O2'          5.5620    -2.4020    -0.9400 oh         1 GPV      -0.586800
     13 C3'          6.3670    -1.2620    -2.9160 c3         1 GPV       0.104100
     14 O3'          6.2770    -2.4470    -3.7090 oh         1 GPV      -0.605800
     15 C4'          6.1260    -0.0340    -3.8000 c3         1 GPV       0.101100
     16 O4'          7.1540     0.0530    -4.7880 oh         1 GPV      -0.596800
     17 C5'          6.1450     1.2240    -2.9280 c3         1 GPV       0.156100
     18 O5'          5.1540     1.1090    -1.9050 os         1 GPV      -0.418600
     19 C6'          5.8450     2.4490    -3.7940 c3         1 GPV       0.152400
     20 O6'          5.9790     3.6340    -3.0050 oh         1 GPV      -0.597800
     21 H6           2.7280     0.0000    -1.4330 h4         1 GPV       0.177000
     22 H1'          6.3240     0.1000    -0.5430 h2         1 GPV       0.114700
     23 H2'          4.3240    -1.4110    -2.2630 h1         1 GPV       0.052700
     24 HO2'         5.0780    -3.1560    -1.2330 ho         1 GPV       0.419000
     25 H3'          7.3500    -1.1950    -2.4660 h1         1 GPV       0.069700
     26 HO3'         7.0950    -2.9150    -3.6690 ho         1 GPV       0.420000
     27 H4'          5.1600    -0.1220    -4.2830 h1         1 GPV       0.055700
     28 HO4'         6.8380    -0.3000    -5.6030 ho         1 GPV       0.418000
     29 H5'          7.1220     1.3290    -2.4710 h1         1 GPV       0.073700
     30 H6'          6.5430     2.4860    -4.6220 h1         1 GPV       0.039200
     31 H6'A         4.8340     2.3820    -4.1770 h1         1 GPV       0.039200
     32 HO6'         5.8390     4.3910    -3.5490 ho         1 GPV       0.408000
     33 HN3          3.9590    -0.0000     3.2250 hn         1 GPV       0.369500
@<TRIPOS>BOND
     1     1     8 1
     2     2     3 1
     3     2     9 1
     4     2    10 1
     5     3     4 2
     6     3     5 1
     7     5     6 1
     8     6     7 2
     9     6     8 1
    10     8     9 2
    11    10    11 1
    12    10    18 1
    13    11    12 1
    14    11    13 1
    15    13    14 1
    16    13    15 1
    17    15    16 1
    18    15    17 1
    19    17    18 1
    20    17    19 1
    21    19    20 1
    22     5    33 1
    23     9    21 1
    24    10    22 1
    25    11    23 1
    26    12    24 1
    27    13    25 1
    28    14    26 1
    29    15    27 1
    30    16    28 1
    31    17    29 1
    32    19    30 1
    33    19    31 1
    34    20    32 1
@<TRIPOS>SUBSTRUCTURE
     1 GPV         1 TEMP              0 ****  ****    0 ROOT
