@<TRIPOS>MOLECULE
molecule
   36    37     1     0     0
SMALL
bcc


@<TRIPOS>ATOM
      1 F1           0.0000     0.0000     0.0000 f          1 GPW      -0.215633
      2 N1           2.6770     3.4490    -0.6740 n          1 GPW      -0.344000
      3 C2           2.8040     3.4440    -2.0130 c          1 GPW       0.813500
      4 F2           1.8650     0.0000     1.3180 f          1 GPW      -0.215633
      5 O2           3.2090     4.4400    -2.5810 o          1 GPW      -0.632500
      6 F3           1.8660    -1.1420    -0.6600 f          1 GPW      -0.215633
      7 N3           2.4890     2.3520    -2.7340 ns         1 GPW      -0.557500
      8 C4           2.0380     1.2390    -2.1210 c          1 GPW       0.720700
      9 O4           1.7540     0.2500    -2.7720 o          1 GPW      -0.594500
     10 C5           1.9010     1.2310    -0.7110 cc         1 GPW      -0.386400
     11 C6           2.2240     2.3400    -0.0130 cd         1 GPW       0.122600
     12 C7           1.3990     0.0000     0.0000 c3         1 GPW       0.708100
     13 C1'          3.0340     4.6500     0.0850 c3         1 GPW       0.337500
     14 C2'          4.5350     4.9130    -0.0520 c3         1 GPW       0.084100
     15 O2'          5.2660     3.8220     0.5100 oh         1 GPW      -0.607800
     16 C3'          4.8900     6.2040     0.6930 c3         1 GPW       0.109100
     17 O3'          6.2770     6.4970     0.5090 oh         1 GPW      -0.600800
     18 C4'          4.0450     7.3530     0.1330 c3         1 GPW       0.101100
     19 O4'          4.3140     8.5480     0.8700 oh         1 GPW      -0.600800
     20 C5'          2.5620     6.9950     0.2630 c3         1 GPW       0.154100
     21 O5'          2.3070     5.7700    -0.4270 os         1 GPW      -0.392600
     22 C6'          1.7130     8.1120    -0.3490 c3         1 GPW       0.153400
     23 O6'          0.3290     7.8340    -0.1250 oh         1 GPW      -0.602800
     24 H6           2.1250     2.3510     1.0660 h4         1 GPW       0.184000
     25 H1'          2.7880     4.5090     1.1300 h2         1 GPW       0.071700
     26 H2'          4.7880     5.0220    -1.1000 h1         1 GPW       0.093700
     27 HO2'         6.0790     3.7140     0.0450 ho         1 GPW       0.425000
     28 H3'          4.6770     6.0820     1.7480 h1         1 GPW       0.057700
     29 HO3'         6.7050     6.5290     1.3480 ho         1 GPW       0.417000
     30 H4'          4.2890     7.5030    -0.9120 h1         1 GPW       0.068700
     31 HO4'         4.8720     9.1120     0.3600 ho         1 GPW       0.417000
     32 H5'          2.3120     6.8770     1.3100 h1         1 GPW       0.062700
     33 H6'          1.9710     9.0570     0.1130 h1         1 GPW       0.042700
     34 H6'A         1.9030     8.1670    -1.4140 h1         1 GPW       0.042700
     35 HO6'        -0.1930     8.5440    -0.4610 ho         1 GPW       0.408000
     36 HN3          2.5900     2.3670    -3.7300 hn         1 GPW       0.371500
@<TRIPOS>BOND
     1     1    12 1
     2     2     3 1
     3     2    11 1
     4     2    13 1
     5     3     5 2
     6     3     7 1
     7     4    12 1
     8     6    12 1
     9     7     8 1
    10     8     9 2
    11     8    10 1
    12    10    11 2
    13    10    12 1
    14    13    14 1
    15    13    21 1
    16    14    15 1
    17    14    16 1
    18    16    17 1
    19    16    18 1
    20    18    19 1
    21    18    20 1
    22    20    21 1
    23    20    22 1
    24    22    23 1
    25     7    36 1
    26    11    24 1
    27    13    25 1
    28    14    26 1
    29    15    27 1
    30    16    28 1
    31    17    29 1
    32    18    30 1
    33    19    31 1
    34    20    32 1
    35    22    33 1
    36    22    34 1
    37    23    35 1
@<TRIPOS>SUBSTRUCTURE
     1 GPW         1 TEMP              0 ****  ****    0 ROOT
