@<TRIPOS>MOLECULE
GQ5
   53    57     1     0     0
SMALL
bcc


@<TRIPOS>ATOM
      1 C7           0.0000     0.0000     0.0000 ca         1 GQ5      -0.260200
      2 C9          -2.3060     0.0020    -0.6510 ca         1 GQ5      -0.070400
      3 N1           1.3810     0.0000     0.0000 na         1 GQ5       0.279700
      4 C2           5.3470     2.1090     3.5930 c3         1 GQ5      -0.042400
      5 N2          -3.2840     0.0010    -1.6520 ns         1 GQ5      -0.039100
      6 C10         -4.4380    -0.6700    -1.4680 c          1 GQ5       0.595700
      7 C4           2.9810     1.9360     3.2120 c3         1 GQ5       0.150800
      8 N3          -9.2770    -1.8990    -4.7630 nc         1 GQ5      -0.622100
      9 N5           0.7530     0.0010     2.0900 nc         1 GQ5      -0.517100
     10 C6           1.7860     0.0000     1.3000 cd         1 GQ5       0.201800
     11 O           -4.6660    -1.2050    -0.4000 o          1 GQ5      -0.641100
     12 C11         -5.4260    -0.7550    -2.5620 ca         1 GQ5      -0.219600
     13 C18         -5.1610    -0.1360    -3.7930 ca         1 GQ5      -0.045000
     14 C17         -6.0610    -0.2050    -4.8130 ca         1 GQ5      -0.127000
     15 C16         -7.2620    -0.8960    -4.6430 ca         1 GQ5      -0.150200
     16 N4          -8.3340    -1.1360    -5.4590 na         1 GQ5       0.457900
     17 C15         -8.4730    -0.6690    -6.8400 c3         1 GQ5       0.035600
     18 C14         -8.8530    -2.1480    -3.5580 cd         1 GQ5       0.450800
     19 C13         -7.5400    -1.5220    -3.4120 ca         1 GQ5      -0.286900
     20 C12         -6.6150    -1.4470    -2.3690 ca         1 GQ5       0.069000
     21 C8          -0.9650     0.0000    -0.9970 ca         1 GQ5      -0.131000
     22 C19         -2.6870     0.0030     0.6890 ca         1 GQ5      -0.124000
     23 C20         -1.7460    -0.0060     1.6790 ca         1 GQ5      -0.022000
     24 C21         -0.3880    -0.0050     1.3510 ca         1 GQ5       0.055400
     25 C5           3.2220     0.0060     1.7560 c3         1 GQ5       0.165500
     26 N            3.6490     1.3880     2.0120 n3         1 GQ5      -0.546600
     27 C1           5.1070     1.4630     2.2130 c3         1 GQ5       0.124500
     28 C            5.7410     2.3240     1.1180 c3         1 GQ5       0.010900
     29 C3           4.0270     2.8820     3.8510 c3         1 GQ5      -0.032400
     30 H1           1.9740    -0.0010    -0.8060 hn         1 GQ5       0.125700
     31 H3           6.1880     2.7910     3.5540 hc         1 GQ5       0.021700
     32 H4          -3.1350     0.5170    -2.4970 hn         1 GQ5       0.171500
     33 H5           2.7280     1.1370     3.8990 h1         1 GQ5       0.027200
     34 H6           2.0950     2.4920     2.9280 h1         1 GQ5       0.027200
     35 H8          -4.2310     0.4020    -3.9340 ha         1 GQ5       0.099000
     36 H9          -5.8440     0.2770    -5.7590 ha         1 GQ5       0.107000
     37 H10         -7.6640    -1.0690    -7.4390 h1         1 GQ5       0.018700
     38 H11         -8.4360     0.4140    -6.8600 h1         1 GQ5       0.018700
     39 H12         -9.4210    -1.0050    -7.2410 h1         1 GQ5       0.018700
     40 H13         -9.3780    -2.7170    -2.8000 h4         1 GQ5       0.017800
     41 H14         -6.7560    -2.0440    -1.4760 ha         1 GQ5       0.127000
     42 H15         -0.6730    -0.1100    -2.0340 ha         1 GQ5       0.103000
     43 H16         -3.7390     0.0180     0.9490 ha         1 GQ5       0.148000
     44 H17         -2.0530    -0.0050     2.7180 ha         1 GQ5       0.111000
     45 H18          3.8480    -0.4280     0.9860 h1         1 GQ5       0.018700
     46 H19          3.3140    -0.5750     2.6660 h1         1 GQ5       0.018700
     47 H21          5.5310     0.4660     2.1960 h1         1 GQ5       0.017700
     48 H22          5.2090     3.2650     1.0450 hc         1 GQ5       0.005033
     49 H23          6.7790     2.5130     1.3620 hc         1 GQ5       0.005033
     50 H24          5.6820     1.8020     0.1700 hc         1 GQ5       0.005033
     51 H25          3.8470     2.9940     4.9130 hc         1 GQ5       0.022200
     52 H26          4.0370     3.8410     3.3480 hc         1 GQ5       0.022200
     53 H2           5.4970     1.3480     4.3490 hc         1 GQ5       0.021700
@<TRIPOS>BOND
     1     1     3 1   
     2     1    21 ar  
     3     1    24 ar  
     4     2     5 1   
     5     2    21 ar  
     6     2    22 ar  
     7     3    10 1   
     8     3    30 1   
     9     4    27 1   
    10     4    29 1   
    11     4    31 1   
    12     4    53 1   
    13     5     6 1   
    14     5    32 1   
    15     6    11 2   
    16     6    12 1   
    17     7    26 1   
    18     7    29 1   
    19     7    33 1   
    20     7    34 1   
    21     8    16 1   
    22     8    18 2   
    23     9    10 2   
    24     9    24 1   
    25    10    25 1   
    26    12    13 ar  
    27    12    20 ar  
    28    13    14 ar  
    29    13    35 1   
    30    14    15 ar  
    31    14    36 1   
    32    15    16 1   
    33    15    19 ar  
    34    16    17 1   
    35    17    37 1   
    36    17    38 1   
    37    17    39 1   
    38    18    19 1   
    39    18    40 1   
    40    19    20 ar  
    41    20    41 1   
    42    21    42 1   
    43    22    23 ar  
    44    22    43 1   
    45    23    24 ar  
    46    23    44 1   
    47    25    26 1   
    48    25    45 1   
    49    25    46 1   
    50    26    27 1   
    51    27    28 1   
    52    27    47 1   
    53    28    48 1   
    54    28    49 1   
    55    28    50 1   
    56    29    51 1   
    57    29    52 1   
@<TRIPOS>SUBSTRUCTURE
     1 GQ5         1 TEMP              0 ****  ****    0 ROOT
