@<TRIPOS>MOLECULE
GQ8
   57    62     1     0     0
SMALL
bcc


@<TRIPOS>ATOM
      1 C1           0.0000     0.0000     0.0000 c3         1 GQ8       0.125500
      2 C2           1.5430     0.0000     0.0000 c3         1 GQ8      -0.042400
      3 C3           1.8940     0.0000     1.5110 c3         1 GQ8      -0.032400
      4 N4          -9.9450    -4.0150    11.4700 na         1 GQ8       0.520900
      5 C6          -1.9300    -2.0690     2.4510 cc         1 GQ8       0.200800
      6 C8          -4.3920    -2.1490     5.0530 ca         1 GQ8      -0.128000
      7 C9          -4.2780    -2.8330     6.2530 ca         1 GQ8      -0.072400
      8 C10         -5.6050    -3.8580     7.9410 c          1 GQ8       0.595700
      9 C11         -6.7650    -3.8350     8.8530 ca         1 GQ8      -0.219600
     10 C13         -8.1590    -4.9150    10.4900 ca         1 GQ8      -0.289900
     11 C15        -11.0040    -3.0810    11.8630 cx         1 GQ8      -0.126000
     12 C16        -11.0780    -2.6750    13.3360 cx         1 GQ8      -0.070900
     13 C18         -8.9590    -3.7570    10.5590 ca         1 GQ8      -0.151200
     14 C19         -8.6450    -2.6500     9.7690 ca         1 GQ8      -0.124000
     15 C21         -3.1330    -3.5760     6.5330 ca         1 GQ8      -0.124000
     16 C22         -2.1080    -3.6380     5.6330 ca         1 GQ8      -0.022000
     17 C23         -2.2030    -2.9560     4.4170 ca         1 GQ8       0.055400
     18 O           -4.9060    -4.8510     7.8710 o          1 GQ8      -0.641100
     19 C20         -7.5710    -2.6880     8.9330 ca         1 GQ8      -0.045000
     20 C17        -12.1280    -3.6200    12.7490 cx         1 GQ8      -0.070900
     21 N3          -9.7800    -5.3100    11.9720 nc         1 GQ8      -0.631100
     22 C14         -8.7470    -5.8760    11.4190 cd         1 GQ8       0.452800
     23 C12         -7.0580    -4.9490     9.6310 ca         1 GQ8       0.070000
     24 N2          -5.3190    -2.7790     7.1860 ns         1 GQ8      -0.038100
     25 C7          -3.3570    -2.2060     4.1300 ca         1 GQ8      -0.262200
     26 N1          -3.1550    -1.6600     2.8800 na         1 GQ8       0.281700
     27 N5          -1.3750    -2.8300     3.3480 nd         1 GQ8      -0.516100
     28 N           -0.4360    -0.5350     1.3030 n3         1 GQ8      -0.545600
     29 C           -0.5210     1.4270    -0.1770 c3         1 GQ8       0.010900
     30 C4           0.7630    -0.8850     2.0930 c3         1 GQ8       0.149800
     31 H1          -0.3670    -0.6340    -0.7980 h1         1 GQ8       0.017700
     32 H2           1.9250     0.8930    -0.4800 hc         1 GQ8       0.021700
     33 H3           1.9250    -0.8930    -0.4800 hc         1 GQ8       0.021700
     34 H4           1.8460     1.0030     1.9180 hc         1 GQ8       0.022200
     35 H5           2.8640    -0.4510     1.6820 hc         1 GQ8       0.022200
     36 H6          -2.0920    -1.4640     0.4170 h1         1 GQ8       0.018200
     37 H7          -0.7280    -2.5370     0.7570 h1         1 GQ8       0.018200
     38 H8          -5.2830    -1.5720     4.8370 ha         1 GQ8       0.102000
     39 H9         -11.3080    -2.3110    11.1640 h1         1 GQ8       0.077700
     40 H10        -11.4140    -1.6630    13.5260 hc         1 GQ8       0.056950
     41 H11        -10.3440    -3.1370    13.9860 hc         1 GQ8       0.056950
     42 H12         -9.2580    -1.7590     9.8200 ha         1 GQ8       0.108000
     43 H13         -3.0540    -4.1070     7.4740 ha         1 GQ8       0.149000
     44 H14         -1.2220    -4.2180     5.8610 ha         1 GQ8       0.111000
     45 H15         -7.3370    -1.8250     8.3220 ha         1 GQ8       0.098000
     46 H16        -13.1060    -3.1860    12.5810 hc         1 GQ8       0.056950
     47 H17        -12.0360    -4.6600    13.0410 hc         1 GQ8       0.056950
     48 H18         -8.3840    -6.8770    11.6170 h4         1 GQ8       0.017800
     49 H19         -6.5280    -5.8800     9.4660 ha         1 GQ8       0.127000
     50 H20         -5.8290    -1.9280     7.3170 hn         1 GQ8       0.170500
     51 H21         -3.8390    -1.1770     2.3310 hn         1 GQ8       0.124700
     52 H24         -1.5910     1.4030    -0.3450 hc         1 GQ8       0.004700
     53 H25         -0.0330     1.8870    -1.0280 hc         1 GQ8       0.004700
     54 H26         -0.3090     2.0030     0.7150 hc         1 GQ8       0.004700
     55 H27          0.6050    -0.6530     3.1390 h1         1 GQ8       0.027700
     56 H28          1.0040    -1.9340     1.9660 h1         1 GQ8       0.027700
     57 C5          -1.3100    -1.7020     1.1280 c3         1 GQ8       0.166500
@<TRIPOS>BOND
     1     1     2 1   
     2     1    28 1   
     3     1    29 1   
     4     1    31 1   
     5     2     3 1   
     6     2    32 1   
     7     2    33 1   
     8     3    30 1   
     9     3    34 1   
    10     3    35 1   
    11     4    11 1   
    12     4    13 1   
    13     4    21 1   
    14     5    26 1   
    15     5    27 2   
    16     5    57 1   
    17     6     7 ar  
    18     6    25 ar  
    19     6    38 1   
    20     7    15 ar  
    21     7    24 1   
    22     8     9 1   
    23     8    18 2   
    24     8    24 1   
    25     9    19 ar  
    26     9    23 ar  
    27    10    13 ar  
    28    10    22 1   
    29    10    23 ar  
    30    11    12 1   
    31    11    20 1   
    32    11    39 1   
    33    12    20 1   
    34    12    40 1   
    35    12    41 1   
    36    13    14 ar  
    37    14    19 ar  
    38    14    42 1   
    39    15    16 ar  
    40    15    43 1   
    41    16    17 ar  
    42    16    44 1   
    43    17    25 ar  
    44    17    27 1   
    45    19    45 1   
    46    20    46 1   
    47    20    47 1   
    48    21    22 2   
    49    22    48 1   
    50    23    49 1   
    51    24    50 1   
    52    25    26 1   
    53    26    51 1   
    54    28    30 1   
    55    28    57 1   
    56    29    52 1   
    57    29    53 1   
    58    29    54 1   
    59    30    55 1   
    60    30    56 1   
    61    36    57 1   
    62    37    57 1   
@<TRIPOS>SUBSTRUCTURE
     1 GQ8         1 TEMP              0 ****  ****    0 ROOT
