@<TRIPOS>MOLECULE
molecule
   57    62     1     0     0
SMALL
bcc


@<TRIPOS>ATOM
      1 C1           0.0000     0.0000     0.0000 c3         1 GQ8       0.158500
      2 C2           1.5430     0.0000     0.0000 c3         1 GQ8      -0.100400
      3 C3           1.8940     0.0000     1.5110 c3         1 GQ8      -0.092400
      4 N4          -9.9450    -4.0150    11.4700 na         1 GQ8       0.095900
      5 C6          -1.9300    -2.0690     2.4510 cc         1 GQ8       0.425800
      6 C8          -4.3920    -2.1490     5.0530 ca         1 GQ8      -0.171000
      7 C9          -4.2780    -2.8330     6.2530 ca         1 GQ8       0.074600
      8 C10         -5.6050    -3.8580     7.9410 c          1 GQ8       0.683700
      9 C11         -6.7650    -3.8350     8.8530 ca         1 GQ8      -0.202600
     10 C13         -8.1590    -4.9150    10.4900 ca         1 GQ8      -0.272900
     11 C15        -11.0040    -3.0810    11.8630 cx         1 GQ8       0.001000
     12 C16        -11.0780    -2.6750    13.3360 cx         1 GQ8      -0.134400
     13 C18         -8.9590    -3.7570    10.5590 ca         1 GQ8       0.008800
     14 C19         -8.6450    -2.6500     9.7690 ca         1 GQ8      -0.160000
     15 C21         -3.1330    -3.5760     6.5330 ca         1 GQ8      -0.143000
     16 C22         -2.1080    -3.6380     5.6330 ca         1 GQ8      -0.058000
     17 C23         -2.2030    -2.9560     4.4170 ca         1 GQ8       0.080400
     18 O           -4.9060    -4.8510     7.8710 o          1 GQ8      -0.599100
     19 C20         -7.5710    -2.6880     8.9330 ca         1 GQ8      -0.066000
     20 C17        -12.1280    -3.6200    12.7490 cx         1 GQ8      -0.134400
     21 N3          -9.7800    -5.3100    11.9720 nc         1 GQ8      -0.501100
     22 C14         -8.7470    -5.8760    11.4190 cd         1 GQ8       0.390800
     23 C12         -7.0580    -4.9490     9.6310 ca         1 GQ8       0.020000
     24 N2          -5.3190    -2.7790     7.1860 ns         1 GQ8      -0.475100
     25 C7          -3.3570    -2.2060     4.1300 ca         1 GQ8      -0.078200
     26 N1          -3.1550    -1.6600     2.8800 na         1 GQ8      -0.253300
     27 N5          -1.3750    -2.8300     3.3480 nd         1 GQ8      -0.603100
     28 N           -0.4360    -0.5350     1.3030 n3         1 GQ8      -0.718600
     29 C           -0.5210     1.4270    -0.1770 c3         1 GQ8      -0.077100
     30 C4           0.7630    -0.8850     2.0930 c3         1 GQ8       0.154800
     31 H1          -0.3670    -0.6340    -0.7980 h1         1 GQ8       0.037700
     32 H2           1.9250     0.8930    -0.4800 hc         1 GQ8       0.049700
     33 H3           1.9250    -0.8930    -0.4800 hc         1 GQ8       0.049700
     34 H4           1.8460     1.0030     1.9180 hc         1 GQ8       0.053200
     35 H5           2.8640    -0.4510     1.6820 hc         1 GQ8       0.053200
     36 H6          -2.0920    -1.4640     0.4170 h1         1 GQ8       0.053200
     37 H7          -0.7280    -2.5370     0.7570 h1         1 GQ8       0.053200
     38 H8          -5.2830    -1.5720     4.8370 ha         1 GQ8       0.125000
     39 H9         -11.3080    -2.3110    11.1640 h1         1 GQ8       0.106700
     40 H10        -11.4140    -1.6630    13.5260 hc         1 GQ8       0.088200
     41 H11        -10.3440    -3.1370    13.9860 hc         1 GQ8       0.088200
     42 H12         -9.2580    -1.7590     9.8200 ha         1 GQ8       0.134000
     43 H13         -3.0540    -4.1070     7.4740 ha         1 GQ8       0.169000
     44 H14         -1.2220    -4.2180     5.8610 ha         1 GQ8       0.146000
     45 H15         -7.3370    -1.8250     8.3220 ha         1 GQ8       0.126000
     46 H16        -13.1060    -3.1860    12.5810 hc         1 GQ8       0.088200
     47 H17        -12.0360    -4.6600    13.0410 hc         1 GQ8       0.088200
     48 H18         -8.3840    -6.8770    11.6170 h4         1 GQ8       0.068800
     49 H19         -6.5280    -5.8800     9.4660 ha         1 GQ8       0.161000
     50 H20         -5.8290    -1.9280     7.3170 hn         1 GQ8       0.323500
     51 H21         -3.8390    -1.1770     2.3310 hn         1 GQ8       0.301700
     52 H24         -1.5910     1.4030    -0.3450 hc         1 GQ8       0.037700
     53 H25         -0.0330     1.8870    -1.0280 hc         1 GQ8       0.037700
     54 H26         -0.3090     2.0030     0.7150 hc         1 GQ8       0.037700
     55 H27          0.6050    -0.6530     3.1390 h1         1 GQ8       0.056700
     56 H28          1.0040    -1.9340     1.9660 h1         1 GQ8       0.056700
     57 C5          -1.3100    -1.7020     1.1280 c3         1 GQ8       0.157500
@<TRIPOS>BOND
     1     3    30 1
     2     3     2 1
     3    30    28 1
     4     2     1 1
     5     1    28 1
     6     1    29 1
     7    27    17 1
     8    27     5 2
     9    28    57 1
    10    16    17 ar
    11    16    15 ar
    12    57     5 1
    13    17    25 ar
    14     5    26 1
    15    15     7 ar
    16    25    26 1
    17    25     6 ar
    18     7     6 ar
    19     7    24 1
    20    24     8 1
    21    19    14 ar
    22    19     9 ar
    23     8     9 1
    24     8    18 2
    25    14    13 ar
    26     9    23 ar
    27    13     4 1
    28    13    10 ar
    29    11    12 1
    30    11     4 1
    31    11    20 1
    32    23    10 ar
    33    12    20 1
    34     4    21 1
    35    10    22 1
    36    21    22 2
    37     1    31 1
    38     2    32 1
    39     2    33 1
    40     3    34 1
    41     3    35 1
    42    57    36 1
    43    57    37 1
    44     6    38 1
    45    11    39 1
    46    12    40 1
    47    12    41 1
    48    14    42 1
    49    15    43 1
    50    16    44 1
    51    19    45 1
    52    20    46 1
    53    20    47 1
    54    22    48 1
    55    23    49 1
    56    24    50 1
    57    26    51 1
    58    29    52 1
    59    29    53 1
    60    29    54 1
    61    30    55 1
    62    30    56 1
@<TRIPOS>SUBSTRUCTURE
     1 GQ8         1 TEMP              0 ****  ****    0 ROOT
