@<TRIPOS>MOLECULE
molecule
   16    16     1     0     0
SMALL
bcc


@<TRIPOS>ATOM
      1 N1           0.0000     0.0000     0.0000 n          1 GQA      -0.207000
      2 C4           2.0510     0.0000     1.1620 cc         1 GQA      -0.194000
      3 C5           1.3600     0.0000     0.0000 cd         1 GQA      -0.035400
      4 C6          -0.7240    -0.0070    -1.2730 c3         1 GQA       0.073300
      5 C1          -0.6890     0.0010     1.1570 cs         1 GQA       0.387600
      6 C2          -0.0010     0.0020     2.3870 cd         1 GQA       0.062900
      7 O1          -0.6880     0.0030     3.5600 oh         1 GQA      -0.476100
      8 C3           1.3660     0.0020     2.3870 cc         1 GQA      -0.104000
      9 H1           3.1340    -0.0000     1.1480 ha         1 GQA       0.155000
     10 H2           1.8960    -0.0020    -0.9420 h4         1 GQA       0.164000
     11 H3          -0.0140    -0.0070    -2.0920 h1         1 GQA       0.071700
     12 H4          -1.3500     0.8740    -1.3380 h1         1 GQA       0.071700
     13 H5          -1.3420    -0.8950    -1.3320 h1         1 GQA       0.071700
     14 H6          -0.7190     0.8800     3.9060 ho         1 GQA       0.427000
     15 H7           1.9140     0.0030     3.3210 ha         1 GQA       0.154000
     16 S1          -2.4010     0.0010     1.1350 s          1 GQA      -0.621400
@<TRIPOS>BOND
     1     4     1 1
     2     3     1 1
     3     3     2 2
     4     1     5 1
     5     2     8 1
     6    16     5 2
     7     5     6 1
     8     6     8 2
     9     6     7 1
    10     2     9 1
    11     3    10 1
    12     4    11 1
    13     4    12 1
    14     4    13 1
    15     7    14 1
    16     8    15 1
@<TRIPOS>SUBSTRUCTURE
     1 GQA         1 TEMP              0 ****  ****    0 ROOT
