@<TRIPOS>MOLECULE
GQA
   16    16     1     0     0
SMALL
bcc


@<TRIPOS>ATOM
      1 N1           0.0000     0.0000     0.0000 n          1 GQA       0.335000
      2 C4           2.0510     0.0000     1.1620 cc         1 GQA      -0.114000
      3 C5           1.3600     0.0000     0.0000 cd         1 GQA      -0.224400
      4 C6          -0.7240    -0.0070    -1.2730 c3         1 GQA      -0.001700
      5 C1          -0.6890     0.0010     1.1570 cs         1 GQA       0.170600
      6 C2          -0.0010     0.0020     2.3870 cd         1 GQA       0.124900
      7 O1          -0.6880     0.0030     3.5600 oh         1 GQA      -0.454100
      8 C3           1.3660     0.0020     2.3870 cc         1 GQA      -0.115000
      9 H1           3.1340    -0.0000     1.1480 ha         1 GQA       0.123000
     10 H2           1.8960    -0.0020    -0.9420 h4         1 GQA       0.141000
     11 H3          -0.0140    -0.0070    -2.0920 h1         1 GQA       0.047700
     12 H4          -1.3500     0.8740    -1.3380 h1         1 GQA       0.047700
     13 H5          -1.3420    -0.8950    -1.3320 h1         1 GQA       0.047700
     14 H6          -0.7190     0.8800     3.9060 ho         1 GQA       0.412000
     15 H7           1.9140     0.0030     3.3210 ha         1 GQA       0.126000
     16 S1          -2.4010     0.0010     1.1350 s          1 GQA      -0.666400
@<TRIPOS>BOND
     1     1     3 1   
     2     1     4 1   
     3     1     5 1   
     4     2     3 2   
     5     2     8 1   
     6     2     9 1   
     7     3    10 1   
     8     4    11 1   
     9     4    12 1   
    10     4    13 1   
    11     5     6 1   
    12     5    16 2   
    13     6     7 1   
    14     6     8 2   
    15     7    14 1   
    16     8    15 1   
@<TRIPOS>SUBSTRUCTURE
     1 GQA         1 TEMP              0 ****  ****    0 ROOT
