@<TRIPOS>MOLECULE
molecule
   53    55     1     0     0
SMALL
bcc


@<TRIPOS>ATOM
      1 C1           0.0000     0.0000     0.0000 c3         1 GQD      -0.132100
      2 C2           1.5290     0.0000     0.0000 c3         1 GQD       0.162500
      3 C4           2.0440     0.0000     1.4390 c3         1 GQD      -0.024100
      4 C5           1.7460     1.3260     2.0920 ca         1 GQD      -0.057300
      5 C6           1.8040     1.4090     3.4740 ca         1 GQD      -0.162000
      6 C7           1.5410     2.6090     4.1140 ca         1 GQD       0.096100
      7 C8           1.2180     3.7320     3.3650 ca         1 GQD      -0.157000
      8 C9           1.1610     3.6450     1.9890 ca         1 GQD      -0.098000
      9 C10          1.4230     2.4420     1.3490 ca         1 GQD      -0.067300
     10 C11          1.3360     2.3970    -0.1540 c3         1 GQD       0.270100
     11 N13          2.0250     1.2110    -0.6730 n3         1 GQD      -0.709600
     12 C14          1.8670     1.1070    -2.1300 c3         1 GQD       0.158800
     13 C15          2.9340     0.1650    -2.6920 c3         1 GQD      -0.071700
     14 C16          2.6890    -0.0480    -4.1880 c3         1 GQD      -0.086100
     15 C17          4.3180     0.7830    -2.4850 c3         1 GQD      -0.086100
     16 C18          1.9780     3.6360    -0.7260 ca         1 GQD      -0.129300
     17 C19          1.1870     4.6940    -1.1360 ca         1 GQD      -0.115500
     18 C20          1.7680     5.8300    -1.6610 ca         1 GQD      -0.147000
     19 C21          3.1590     5.9100    -1.7760 ca         1 GQD      -0.004800
     20 C22          3.9520     4.8360    -1.3580 ca         1 GQD      -0.147000
     21 C23          3.3570     3.7090    -0.8320 ca         1 GQD      -0.115500
     22 C24          3.7860     7.1190    -2.3350 ce         1 GQD      -0.186200
     23 C25          5.1290     7.1930    -2.4440 cf         1 GQD      -0.135200
     24 C26          5.7520     8.3940    -2.9990 c          1 GQD       0.864800
     25 O27          7.0950     8.4680    -3.1090 o          1 GQD      -0.837300
     26 O28          5.0590     9.3260    -3.3610 o          1 GQD      -0.837300
     27 O29          1.5970     2.6870     5.4690 oh         1 GQD      -0.530100
     28 H11C        -0.3610     0.6650     0.7750 hc         1 GQD       0.039367
     29 H12C        -0.3610     0.3390    -0.9630 hc         1 GQD       0.039367
     30 H13C        -0.3610    -1.0040     0.1880 hc         1 GQD       0.039367
     31 H2           1.8980    -0.8780    -0.5160 h1         1 GQD       0.061700
     32 H41C         3.1170    -0.1470     1.4240 hc         1 GQD       0.055700
     33 H42C         1.5330    -0.7810     1.9900 hc         1 GQD       0.055700
     34 H6           2.0560     0.5320     4.0570 ha         1 GQD       0.132000
     35 H8           1.0110     4.6740     3.8590 ha         1 GQD       0.138000
     36 H29          2.4680     2.9290     5.7350 ho         1 GQD       0.415000
     37 H9           0.9090     4.5210     1.4050 ha         1 GQD       0.150000
     38 H11          0.2940     2.3610    -0.4490 h1         1 GQD       0.036700
     39 H141         0.8830     0.7160    -2.3590 h1         1 GQD       0.043700
     40 H142         1.9790     2.0870    -2.5770 h1         1 GQD       0.043700
     41 H15          2.8820    -0.7870    -2.1790 hc         1 GQD       0.039700
     42 H161         1.6990    -0.4630    -4.3360 hc         1 GQD       0.035200
     43 H162         3.4300    -0.7330    -4.5810 hc         1 GQD       0.035200
     44 H163         2.7640     0.9010    -4.7040 hc         1 GQD       0.035200
     45 H171         4.5240     0.8600    -1.4240 hc         1 GQD       0.035200
     46 H172         5.0670     0.1550    -2.9530 hc         1 GQD       0.035200
     47 H173         4.3440     1.7690    -2.9310 hc         1 GQD       0.035200
     48 H19          0.1100     4.6310    -1.0460 ha         1 GQD       0.125000
     49 H23          3.9690     2.8760    -0.5070 ha         1 GQD       0.125000
     50 H20          1.1480     6.6580    -1.9820 ha         1 GQD       0.137500
     51 H22          5.0300     4.8920    -1.4420 ha         1 GQD       0.137500
     52 H24          3.1690     7.9500    -2.6580 ha         1 GQD       0.152000
     53 H25          5.7450     6.3620    -2.1210 ha         1 GQD       0.105000
@<TRIPOS>BOND
     1     1     2 1
     2     2     3 1
     3     2    11 1
     4     3     4 1
     5     4     5 ar
     6     4     9 ar
     7     5     6 ar
     8     6     7 ar
     9     6    27 1
    10     7     8 ar
    11     8     9 ar
    12     9    10 1
    13    10    11 1
    14    10    16 1
    15    11    12 1
    16    12    13 1
    17    13    14 1
    18    13    15 1
    19    16    17 ar
    20    16    21 ar
    21    17    18 ar
    22    18    19 ar
    23    19    20 ar
    24    19    22 1
    25    20    21 ar
    26    22    23 2
    27    23    24 1
    28    24    25 1
    29    24    26 1
    30     1    28 1
    31     1    29 1
    32     1    30 1
    33     2    31 1
    34     3    32 1
    35     3    33 1
    36     5    34 1
    37     7    35 1
    38    27    36 1
    39     8    37 1
    40    10    38 1
    41    12    39 1
    42    12    40 1
    43    13    41 1
    44    14    42 1
    45    14    43 1
    46    14    44 1
    47    15    45 1
    48    15    46 1
    49    15    47 1
    50    17    48 1
    51    21    49 1
    52    18    50 1
    53    20    51 1
    54    22    52 1
    55    23    53 1
@<TRIPOS>SUBSTRUCTURE
     1 GQD         1 TEMP              0 ****  ****    0 ROOT
