@<TRIPOS>MOLECULE
GQD
   53    57     1     0     0
SMALL
bcc


@<TRIPOS>ATOM
      1 C1           0.0000     0.0000     0.0000 c3         1 GQD      -0.169000
      2 C2           1.5290     0.0000     0.0000 c3         1 GQD      -0.080000
      3 C4           2.0440     0.0000     1.4390 c3         1 GQD      -0.046000
      4 C5           1.7460     1.3260     2.0920 ca         1 GQD      -0.052000
      5 C6           1.8040     1.4090     3.4740 ca         1 GQD      -0.151000
      6 C7           1.5410     2.6090     4.1140 ca         1 GQD       0.066000
      7 C8           1.2180     3.7320     3.3650 ca         1 GQD      -0.144000
      8 C9           1.1610     3.6450     1.9890 ca         1 GQD      -0.068000
      9 C10          1.4230     2.4420     1.3490 ca         1 GQD      -0.071000
     10 C11          1.3360     2.3970    -0.1540 c3         1 GQD       0.048000
     11 N13          2.0250     1.2110    -0.6730 n3         1 GQD      -0.045000
     12 C14          1.8670     1.1070    -2.1300 c3         1 GQD      -0.105000
     13 C15          2.9340     0.1650    -2.6920 c3         1 GQD      -0.094000
     14 C16          2.6890    -0.0480    -4.1880 c3         1 GQD      -0.115000
     15 C17          4.3180     0.7830    -2.4850 c3         1 GQD      -0.115000
     16 C18          1.9780     3.6360    -0.7260 c2         1 GQD      -0.202000
     17 C19          1.1870     4.6940    -1.1360 c2         1 GQD      -0.050500
     18 C20          1.7680     5.8300    -1.6610 c2         1 GQD      -0.212000
     19 C21          3.1590     5.9100    -1.7760 c3         1 GQD       0.095000
     20 C22          3.9520     4.8360    -1.3580 c2         1 GQD      -0.212000
     21 C23          3.3570     3.7090    -0.8320 c2         1 GQD      -0.050500
     22 C24          3.7860     7.1190    -2.3350 c2         1 GQD      -0.080000
     23 C25          5.1290     7.1930    -2.4440 c2         1 GQD      -0.166000
     24 C26          5.7520     8.3940    -2.9990 c3         1 GQD       0.500000
     25 O27          7.0950     8.4680    -3.1090 o          1 GQD      -0.587000
     26 O28          5.0590     9.3260    -3.3610 o          1 GQD      -0.587000
     27 O29          1.5970     2.6870     5.4690 oh         1 GQD      -0.256000
     28 H11C        -0.3610     0.3430    -0.9620 hc         1 GQD       0.052667
     29 H12C        -0.3610     0.6610     0.7780 hc         1 GQD       0.052667
     30 H13C        -0.3610    -1.0050     0.1840 hc         1 GQD       0.052667
     31 H2           1.8980    -0.8780    -0.5160 h1         1 GQD       0.076000
     32 H41C         3.1170    -0.1470     1.4240 hc         1 GQD       0.064000
     33 H42C         1.5330    -0.7810     1.9900 hc         1 GQD       0.064000
     34 H6           2.0560     0.5320     4.0570 ha         1 GQD       0.108000
     35 H8           1.0110     4.6740     3.8590 ha         1 GQD       0.111000
     36 H29          0.7440     2.5100     5.8300 ho         1 GQD       0.191000
     37 H9           0.9090     4.5210     1.4050 ha         1 GQD       0.127000
     38 H11          0.2940     2.3610    -0.4490 h1         1 GQD       0.056000
     39 H141         1.9790     2.0870    -2.5770 h1         1 GQD       0.064000
     40 H142         0.8830     0.7160    -2.3590 h1         1 GQD       0.064000
     41 H15          2.8820    -0.7870    -2.1790 hc         1 GQD       0.059000
     42 H161         1.6990    -0.4630    -4.3360 hc         1 GQD       0.044333
     43 H162         2.7640     0.9010    -4.7040 hc         1 GQD       0.044333
     44 H163         3.4300    -0.7330    -4.5810 hc         1 GQD       0.044333
     45 H171         4.3470     1.7650    -2.9400 hc         1 GQD       0.044333
     46 H172         4.5200     0.8700    -1.4240 hc         1 GQD       0.044333
     47 H173         5.0680     0.1500    -2.9440 hc         1 GQD       0.044333
     48 H19          0.1100     4.6310    -1.0460 ha         1 GQD       0.099500
     49 H23          3.9690     2.8760    -0.5070 ha         1 GQD       0.099500
     50 H20          1.1480     6.6580    -1.9820 ha         1 GQD       0.122500
     51 H22          5.0300     4.8920    -1.4420 ha         1 GQD       0.122500
     52 H24          3.6430     6.1960    -2.8830 DU         1 GQD       0.023000
     53 H25          5.1770     7.4240    -3.5020 DU         1 GQD       0.076000
@<TRIPOS>BOND
     1     1     2 1   
     2     1    28 1   
     3     1    29 1   
     4     1    30 1   
     5     2     3 1   
     6     2    11 1   
     7     2    31 1   
     8     3     4 1   
     9     3    32 1   
    10     3    33 1   
    11     4     5 1   
    12     4     9 1   
    13     5     6 1   
    14     5    34 1   
    15     6     7 1   
    16     6    27 1   
    17     7     8 1   
    18     7    35 1   
    19     8     9 1   
    20     8    37 1   
    21     9    10 1   
    22    10    11 1   
    23    10    16 1   
    24    10    38 1   
    25    11    12 1   
    26    12    13 1   
    27    12    39 1   
    28    12    40 1   
    29    13    14 1   
    30    13    15 1   
    31    13    41 1   
    32    14    42 1   
    33    14    43 1   
    34    14    44 1   
    35    15    45 1   
    36    15    46 1   
    37    15    47 1   
    38    16    17 1   
    39    16    21 1   
    40    17    18 1   
    41    17    48 1   
    42    18    19 1   
    43    18    50 1   
    44    19    20 1   
    45    19    22 1   
    46    19    52 1   
    47    20    21 1   
    48    20    51 1   
    49    21    49 1   
    50    22    23 1   
    51    22    52 1   
    52    23    24 1   
    53    23    53 1   
    54    24    25 1   
    55    24    26 1   
    56    24    53 1   
    57    27    36 1   
@<TRIPOS>SUBSTRUCTURE
     1 GQD         1 TEMP              0 ****  ****    0 ROOT
