@<TRIPOS>MOLECULE
molecule
   35    36     1     0     0
SMALL
bcc


@<TRIPOS>ATOM
      1 O15          0.0000     0.0000     0.0000 o          1 GQE      -0.590100
      2 C14          1.2150     0.0000     0.0000 c          1 GQE       0.675700
      3 C16          1.9550     0.0000     1.2800 ca         1 GQE      -0.148600
      4 C21          1.2600    -0.0010     2.4900 ca         1 GQE      -0.083500
      5 C20          1.9560    -0.0010     3.6810 ca         1 GQE      -0.138500
      6 C19          3.3400    -0.0000     3.6770 ca         1 GQE      -0.103000
      7 C18          4.0340     0.0010     2.4810 ca         1 GQE      -0.138500
      8 C17          3.3510    -0.0050     1.2830 ca         1 GQE      -0.083500
      9 N13          1.8890    -0.0040    -1.1680 ns         1 GQE      -0.468100
     10 C12          1.1910    -0.1050    -2.3780 ca         1 GQE       0.023600
     11 C03          1.7470    -0.8090    -3.4470 ca         1 GQE       0.133100
     12 O02          2.9670    -1.3910    -3.3160 os         1 GQE      -0.331900
     13 C01          3.4760    -2.0950    -4.4500 c3         1 GQE       0.129700
     14 C11         -0.0500     0.4880    -2.5130 ca         1 GQE      -0.033000
     15 C06         -0.7440     0.3840    -3.7210 ca         1 GQE      -0.162600
     16 C05         -0.1780    -0.3170    -4.7890 ca         1 GQE      -0.087000
     17 C04          1.0550    -0.9150    -4.6470 ca         1 GQE      -0.216000
     18 C07         -2.0700     1.0140    -3.8700 c          1 GQE       0.691700
     19 O08         -2.5610     1.6240    -2.9390 o          1 GQE      -0.567100
     20 N09         -2.7370     0.9140    -5.0370 ns         1 GQE      -0.474400
     21 O10         -4.0090     1.5180    -5.1790 oh         1 GQE      -0.360100
     22 H1           0.1770    -0.0010     2.4950 ha         1 GQE       0.143000
     23 H2           1.4180    -0.0020     4.6220 ha         1 GQE       0.135500
     24 H3           3.8820     0.0020     4.6150 ha         1 GQE       0.133000
     25 H4           5.1180    -0.0010     2.4850 ha         1 GQE       0.135500
     26 H5           3.8960    -0.0040     0.3470 ha         1 GQE       0.143000
     27 H6           2.8830     0.1170    -1.1720 hn         1 GQE       0.334500
     28 H7           2.7970    -2.8970    -4.7120 h1         1 GQE       0.044033
     29 H8           3.5690    -1.4130    -5.2860 h1         1 GQE       0.044033
     30 H9           4.4490    -2.5080    -4.2120 h1         1 GQE       0.044033
     31 H10         -0.4850     1.0300    -1.6820 ha         1 GQE       0.201000
     32 H11         -0.7150    -0.4000    -5.7270 ha         1 GQE       0.121000
     33 H12          1.4910    -1.4590    -5.4760 ha         1 GQE       0.140000
     34 H13         -2.3300     0.4170    -5.8040 hn         1 GQE       0.318500
     35 H14         -4.3470     1.3380    -6.0410 ho         1 GQE       0.396000
@<TRIPOS>BOND
     1    13    12 1
     2    17    16 ar
     3    17    11 ar
     4    16    15 ar
     5    12    11 1
     6    11    10 ar
     7    20    21 1
     8    20    18 1
     9    15    18 1
    10    15    14 ar
    11    18    19 2
    12    10    14 ar
    13    10     9 1
    14     1     2 2
    15     9     2 1
    16     2     3 1
    17     3     4 ar
    18     3     8 ar
    19     4     5 ar
    20     8     7 ar
    21     5     6 ar
    22     7     6 ar
    23     4    22 1
    24     5    23 1
    25     6    24 1
    26     7    25 1
    27     8    26 1
    28     9    27 1
    29    13    28 1
    30    13    29 1
    31    13    30 1
    32    14    31 1
    33    16    32 1
    34    17    33 1
    35    20    34 1
    36    21    35 1
@<TRIPOS>SUBSTRUCTURE
     1 GQE         1 TEMP              0 ****  ****    0 ROOT
