@<TRIPOS>MOLECULE
GQG
   43    45     1     0     0
SMALL
bcc


@<TRIPOS>ATOM
      1 CAA          0.0000     0.0000     0.0000 c3         1 GQG       0.004600
      2 NBE          1.4650     0.0000     0.0000 nh         1 GQG       0.105900
      3 CAB          2.1970     0.0000     1.2680 c3         1 GQG       0.004600
      4 CBA          2.1610    -0.0010    -1.2050 cc         1 GQG       0.252900
      5 CAM          1.4820    -0.0010    -2.4240 cc         1 GQG      -0.246600
      6 CAP          2.2080    -0.0020    -3.5950 cd         1 GQG      -0.079500
      7 CAL          3.5550     0.0040    -1.2260 cc         1 GQG      -0.246600
      8 CAO          4.2070     0.0030    -2.4420 cd         1 GQG      -0.079500
      9 NBG          3.5290    -0.0020    -3.5740 na         1 GQG       0.185800
     10 CAS          4.2610    -0.0030    -4.8420 c3         1 GQG       0.145100
     11 CAX          4.5120     1.4180    -5.2780 ca         1 GQG      -0.196300
     12 CAG          5.6650     2.0680    -4.8770 ca         1 GQG      -0.069000
     13 CAK          5.9000     3.3690    -5.2740 ca         1 GQG      -0.096500
     14 CAF          3.5900     2.0650    -6.0820 ca         1 GQG      -0.069000
     15 CAJ          3.8160     3.3660    -6.4840 ca         1 GQG      -0.096500
     16 CAZ          4.9730     4.0280    -6.0780 cp         1 GQG       0.034000
     17 CAY          5.2210     5.4270    -6.5070 cp         1 GQG      -0.074000
     18 CAI          4.2940     6.0860    -7.3130 ca         1 GQG      -0.085000
     19 CAE          4.5290     7.3870    -7.7080 ca         1 GQG      -0.093000
     20 CAH          6.3780     6.0880    -6.1010 ca         1 GQG      -0.085000
     21 CAD          6.6030     7.3900    -6.5040 ca         1 GQG      -0.093000
     22 CAW          5.6820     8.0370    -7.3070 ca         1 GQG      -0.073000
     23 HAA1        -0.3610     0.8840    -0.5120 h1         1 GQG       0.029700
     24 HAA2        -0.3610    -0.8850    -0.5100 h1         1 GQG       0.029700
     25 HAA3        -0.3610     0.0010     1.0210 h1         1 GQG       0.029700
     26 HAB1         2.8180     0.8860     1.3270 h1         1 GQG       0.029700
     27 HAB2         1.4940    -0.0030     2.0910 h1         1 GQG       0.029700
     28 HAB3         2.8230    -0.8830     1.3240 h1         1 GQG       0.029700
     29 HAM          0.3990    -0.0020    -2.4490 ha         1 GQG       0.155500
     30 HAL          4.1190     0.0080    -0.3010 ha         1 GQG       0.155500
     31 HAP          1.6890    -0.0040    -4.5460 h4         1 GQG       0.163000
     32 HAO          5.2900     0.0060    -2.4680 h4         1 GQG       0.163000
     33 HAS1         5.2070    -0.5140    -4.7130 h1         1 GQG       0.062700
     34 HAS2         3.6750    -0.5140    -5.5970 h1         1 GQG       0.062700
     35 HAG          6.3850     1.5550    -4.2510 ha         1 GQG       0.102000
     36 HAF          2.6910     1.5500    -6.3970 ha         1 GQG       0.102000
     37 HAK          6.8030     3.8780    -4.9570 ha         1 GQG       0.128000
     38 HAJ          3.0930     3.8730    -7.1120 ha         1 GQG       0.128000
     39 HAI          3.3900     5.5780    -7.6280 ha         1 GQG       0.108000
     40 HAH          7.1000     5.5820    -5.4720 ha         1 GQG       0.108000
     41 HAE          3.8100     7.8990    -8.3360 ha         1 GQG       0.111000
     42 HAW          5.8620     9.0580    -7.6200 ha         1 GQG       0.111000
     43 HAD          7.5030     7.9040    -6.1910 ha         1 GQG       0.111000
@<TRIPOS>BOND
     1     1     2 1   
     2     1    23 1   
     3     1    24 1   
     4     1    25 1   
     5     2     3 1   
     6     2     4 2   
     7     3    26 1   
     8     3    27 1   
     9     3    28 1   
    10     4     5 1   
    11     4     7 1   
    12     5     6 2   
    13     5    29 1   
    14     6     9 1   
    15     6    31 1   
    16     7     8 2   
    17     7    30 1   
    18     8     9 1   
    19     8    32 1   
    20     9    10 1   
    21    10    11 1   
    22    10    33 1   
    23    10    34 1   
    24    11    12 ar  
    25    11    14 ar  
    26    12    13 ar  
    27    12    35 1   
    28    13    16 ar  
    29    13    37 1   
    30    14    15 ar  
    31    14    36 1   
    32    15    16 ar  
    33    15    38 1   
    34    16    17 1   
    35    17    18 ar  
    36    17    20 ar  
    37    18    19 ar  
    38    18    39 1   
    39    19    22 ar  
    40    19    41 1   
    41    20    21 ar  
    42    20    40 1   
    43    21    22 ar  
    44    21    43 1   
    45    22    42 1   
@<TRIPOS>SUBSTRUCTURE
     1 GQG         1 TEMP              0 ****  ****    0 ROOT
