@<TRIPOS>MOLECULE
GQK
   86    88     1     0     0
SMALL
bcc


@<TRIPOS>ATOM
      1 C4           0.0000     0.0000     0.0000 ca         1 GQK      -0.094500
      2 C5           1.3830     0.0000     0.0000 ca         1 GQK      -0.101500
      3 C6           2.0740     0.0000     1.1970 ca         1 GQK      -0.089300
      4 C7           3.5810     0.0010     1.1970 c3         1 GQK      -0.005100
      5 C8           4.0910     1.4430     1.1980 c3         1 GQK       0.007700
      6 C24          2.9850     4.1810    -1.2380 c3         1 GQK      -0.056300
      7 C36         -0.6070    12.5620    -4.4570 c3         1 GQK       0.098300
      8 C35         -0.2390    14.0430    -4.5920 c3         1 GQK       0.216900
      9 O34          1.0060    14.1570    -5.2860 os         1 GQK      -0.417600
     10 C33          2.0890    13.4790    -4.6420 c3         1 GQK       0.216900
     11 C32          1.7450    11.9930    -4.5070 c3         1 GQK       0.098300
     12 N31          0.4810    11.8540    -3.7680 n3         1 GQK      -0.504600
     13 C30          0.1430    10.4390    -3.5660 c3         1 GQK       0.086800
     14 O37          2.0740    10.4660    -2.2100 o          1 GQK      -0.643100
     15 N28          1.0490     8.5020    -2.3230 ns         1 GQK      -0.175900
     16 C27          2.0370     7.8850    -1.4330 c3         1 GQK      -0.052300
     17 C38          1.6370     8.1350     0.0230 c3         1 GQK      -0.015100
     18 O39          1.3730     5.9080    -2.5380 o          1 GQK      -0.653100
     19 N25          2.9330     5.6230    -0.9860 ns         1 GQK      -0.159900
     20 C40          3.9360     3.9010    -2.4020 c3         1 GQK       0.027900
     21 C41          3.3770     4.5070    -3.6640 ca         1 GQK      -0.128300
     22 C48          2.5330     3.7670    -4.4710 ca         1 GQK      -0.048000
     23 C47          2.0200     4.3190    -5.6280 ca         1 GQK      -0.165500
     24 C44          2.3510     5.6180    -5.9800 ca         1 GQK       0.155100
     25 O45          1.8470     6.1650    -7.1180 os         1 GQK      -0.309900
     26 C46          2.2310     7.5080    -7.4190 c3         1 GQK       0.244700
     27 C43          3.1980     6.3610    -5.1700 ca         1 GQK      -0.165500
     28 C42          3.7050     5.8050    -4.0110 ca         1 GQK      -0.048000
     29 N22          3.6090     2.1320    -0.0020 ns         1 GQK      -0.182900
     30 C3          -0.6900    -0.0020     1.1970 ca         1 GQK      -0.102000
     31 C2           0.0010    -0.0020     2.3940 ca         1 GQK      -0.094500
     32 C1           1.3830    -0.0020     2.3940 ca         1 GQK      -0.101500
     33 C9           5.6200     1.4440     1.2070 c3         1 GQK       0.173100
     34 O21          6.0970     2.7830     1.0530 oh         1 GQK      -0.558800
     35 H1          -0.5420     0.0000    -0.9380 ha         1 GQK       0.103000
     36 H2           1.9240     0.0010    -0.9380 ha         1 GQK       0.103500
     37 H3           3.9420    -0.5090     0.3120 hc         1 GQK       0.049200
     38 H4           3.9420    -0.5110     2.0810 hc         1 GQK       0.049200
     39 H5           3.7240     1.9550     2.0800 h1         1 GQK       0.078700
     40 H6           1.9930     3.8230    -1.4870 h1         1 GQK       0.071700
     41 H8          -1.5200    12.4690    -3.8810 h1         1 GQK       0.022200
     42 H9          -0.1440    14.4830    -3.6070 h1         1 GQK       0.013450
     43 H10         -1.0110    14.5570    -5.1510 h1         1 GQK       0.013450
     44 H11          2.2460    13.9040    -3.6580 h1         1 GQK       0.013450
     45 H12          2.9870    13.5880    -5.2370 h1         1 GQK       0.013450
     46 H13          2.5360    11.4880    -3.9680 h1         1 GQK       0.022200
     47 H14          1.6360    11.5580    -5.4930 h1         1 GQK       0.022200
     48 H16          0.1470     9.9270    -4.5210 h1         1 GQK       0.022200
     49 H17         -0.8420    10.3630    -3.1210 h1         1 GQK       0.022200
     50 H18          0.2640     7.9690    -2.6430 hn         1 GQK       0.196500
     51 H19          3.0110     8.3200    -1.6190 h1         1 GQK       0.065700
     52 H20          0.7170     8.7060     0.0510 hc         1 GQK       0.017367
     53 H21          2.4220     8.6890     0.5230 hc         1 GQK       0.017367
     54 H22          1.4880     7.1860     0.5240 hc         1 GQK       0.017367
     55 H23          3.5430     6.0350    -0.3070 hn         1 GQK       0.201500
     56 H24          4.9040     4.3380    -2.1900 hc         1 GQK       0.020700
     57 H25          4.0430     2.8310    -2.5320 hc         1 GQK       0.020700
     58 H26          2.2740     2.7510    -4.1950 ha         1 GQK       0.098000
     59 H27          1.3590     3.7370    -6.2590 ha         1 GQK       0.116500
     60 H28          1.8900     8.1670    -6.6280 h1         1 GQK      -0.003633
     61 H29          1.7830     7.8100    -8.3580 h1         1 GQK      -0.003633
     62 H30          3.3100     7.5670    -7.4970 h1         1 GQK      -0.003633
     63 H31          3.4560     7.3770    -5.4430 ha         1 GQK       0.116500
     64 H32          4.3670     6.3840    -3.3770 ha         1 GQK       0.098000
     65 H33          3.3960     1.6080    -0.8280 hn         1 GQK       0.178500
     66 H34         -1.7740    -0.0020     1.1980 ha         1 GQK       0.103000
     67 H35         -0.5410    -0.0040     3.3330 ha         1 GQK       0.103000
     68 H36          1.9250    -0.0020     3.3320 ha         1 GQK       0.103500
     69 H37          5.9870     0.8340     0.3900 h1         1 GQK       0.007700
     70 H38          6.8340     2.7880     0.4650 ho         1 GQK       0.384000
     71 C10          6.1220     0.8730     2.5350 c3         1 GQK       0.144800
     72 C23          3.4790     3.4740    -0.0030 c          1 GQK       0.567100
     73 C11          7.6430     1.0160     2.6090 c3         1 GQK      -0.035600
     74 C12          5.4810     1.6380     3.6940 c3         1 GQK      -0.035600
     75 O13          5.7690    -0.5090     2.6230 oh         1 GQK      -0.594800
     76 C26          2.0900     6.4020    -1.6930 c          1 GQK       0.562100
     77 O49          3.7610     4.1100     0.9900 o          1 GQK      -0.634100
     78 C29          1.1580     9.8040    -2.6510 c          1 GQK       0.567100
     79 H7          -0.7500    12.1340    -5.4420 h1         1 GQK       0.022200
     80 H39          7.9040     2.0640     2.6970 hc         1 GQK       0.018533
     81 H40          8.0880     0.6080     1.7100 hc         1 GQK       0.018533
     82 H41          8.0150     0.4780     3.4720 hc         1 GQK       0.018533
     83 H42          4.4900     1.2420     3.8840 hc         1 GQK       0.018533
     84 H43          5.4070     2.6880     3.4370 hc         1 GQK       0.018533
     85 H44          6.0910     1.5260     4.5820 hc         1 GQK       0.018533
     86 H45          6.3990    -0.9610     3.1590 ho         1 GQK       0.397000
@<TRIPOS>BOND
     1     1     2 ar  
     2     1    30 ar  
     3     1    35 1   
     4     2     3 ar  
     5     2    36 1   
     6     3     4 1   
     7     3    32 ar  
     8     4     5 1   
     9     4    37 1   
    10     4    38 1   
    11     5    29 1   
    12     5    33 1   
    13     5    39 1   
    14     6    19 1   
    15     6    20 1   
    16     6    40 1   
    17     6    72 1   
    18     7     8 1   
    19     7    12 1   
    20     7    41 1   
    21     7    79 1   
    22     8     9 1   
    23     8    42 1   
    24     8    43 1   
    25     9    10 1   
    26    10    11 1   
    27    10    44 1   
    28    10    45 1   
    29    11    12 1   
    30    11    46 1   
    31    11    47 1   
    32    12    13 1   
    33    13    48 1   
    34    13    49 1   
    35    13    78 1   
    36    14    78 2   
    37    15    16 1   
    38    15    50 1   
    39    15    78 1   
    40    16    17 1   
    41    16    51 1   
    42    16    76 1   
    43    17    52 1   
    44    17    53 1   
    45    17    54 1   
    46    18    76 2   
    47    19    55 1   
    48    19    76 1   
    49    20    21 1   
    50    20    56 1   
    51    20    57 1   
    52    21    22 ar  
    53    21    28 ar  
    54    22    23 ar  
    55    22    58 1   
    56    23    24 ar  
    57    23    59 1   
    58    24    25 1   
    59    24    27 ar  
    60    25    26 1   
    61    26    60 1   
    62    26    61 1   
    63    26    62 1   
    64    27    28 ar  
    65    27    63 1   
    66    28    64 1   
    67    29    65 1   
    68    29    72 1   
    69    30    31 ar  
    70    30    66 1   
    71    31    32 ar  
    72    31    67 1   
    73    32    68 1   
    74    33    34 1   
    75    33    69 1   
    76    33    71 1   
    77    34    70 1   
    78    71    73 1   
    79    71    74 1   
    80    71    75 1   
    81    72    77 2   
    82    73    80 1   
    83    73    81 1   
    84    73    82 1   
    85    74    83 1   
    86    74    84 1   
    87    74    85 1   
    88    75    86 1   
@<TRIPOS>SUBSTRUCTURE
     1 GQK         1 TEMP              0 ****  ****    0 ROOT
