@<TRIPOS>MOLECULE
molecule
   86    88     1     0     0
SMALL
bcc


@<TRIPOS>ATOM
      1 C4           0.0000     0.0000     0.0000 ca         1 GQK      -0.123500
      2 C5           1.3830     0.0000     0.0000 ca         1 GQK      -0.125000
      3 C6           2.0740     0.0000     1.1970 ca         1 GQK      -0.079300
      4 C7           3.5810     0.0010     1.1970 c3         1 GQK      -0.055100
      5 C8           4.0910     1.4430     1.1980 c3         1 GQK       0.123700
      6 C24          2.9850     4.1810    -1.2380 c3         1 GQK       0.046700
      7 C36         -0.6070    12.5620    -4.4570 c3         1 GQK       0.120800
      8 C35         -0.2390    14.0430    -4.5920 c3         1 GQK       0.141400
      9 O34          1.0060    14.1570    -5.2860 os         1 GQK      -0.429600
     10 C33          2.0890    13.4790    -4.6420 c3         1 GQK       0.141400
     11 C32          1.7450    11.9930    -4.5070 c3         1 GQK       0.120800
     12 N31          0.4810    11.8540    -3.7680 n3         1 GQK      -0.704600
     13 C30          0.1430    10.4390    -3.5660 c3         1 GQK       0.091800
     14 O37          2.0740    10.4660    -2.2100 o          1 GQK      -0.602100
     15 N28          1.0490     8.5020    -2.3230 ns         1 GQK      -0.571900
     16 C27          2.0370     7.8850    -1.4330 c3         1 GQK       0.046700
     17 C38          1.6370     8.1350     0.0230 c3         1 GQK      -0.110100
     18 O39          1.3730     5.9080    -2.5380 o          1 GQK      -0.607100
     19 N25          2.9330     5.6230    -0.9860 ns         1 GQK      -0.564900
     20 C40          3.9360     3.9010    -2.4020 c3         1 GQK      -0.041100
     21 C41          3.3770     4.5070    -3.6640 ca         1 GQK      -0.112300
     22 C48          2.5330     3.7670    -4.4710 ca         1 GQK      -0.079000
     23 C47          2.0200     4.3190    -5.6280 ca         1 GQK      -0.179000
     24 C44          2.3510     5.6180    -5.9800 ca         1 GQK       0.143100
     25 O45          1.8470     6.1650    -7.1180 os         1 GQK      -0.331900
     26 C46          2.2310     7.5080    -7.4190 c3         1 GQK       0.130700
     27 C43          3.1980     6.3610    -5.1700 ca         1 GQK      -0.179000
     28 C42          3.7050     5.8050    -4.0110 ca         1 GQK      -0.079000
     29 N22          3.6090     2.1320    -0.0020 ns         1 GQK      -0.575900
     30 C3          -0.6900    -0.0020     1.1970 ca         1 GQK      -0.129000
     31 C2           0.0010    -0.0020     2.3940 ca         1 GQK      -0.123500
     32 C1           1.3830    -0.0020     2.3940 ca         1 GQK      -0.125000
     33 C9           5.6200     1.4440     1.2070 c3         1 GQK       0.141100
     34 O21          6.0970     2.7830     1.0530 oh         1 GQK      -0.578800
     35 H1          -0.5420     0.0000    -0.9380 ha         1 GQK       0.129500
     36 H2           1.9240     0.0010    -0.9380 ha         1 GQK       0.125500
     37 H3           3.9420    -0.5090     0.3120 hc         1 GQK       0.075200
     38 H4           3.9420    -0.5110     2.0810 hc         1 GQK       0.075200
     39 H5           3.7240     1.9550     2.0800 h1         1 GQK       0.097700
     40 H6           1.9930     3.8230    -1.4870 h1         1 GQK       0.098700
     41 H8          -1.5200    12.4690    -3.8810 h1         1 GQK       0.046450
     42 H9          -0.1440    14.4830    -3.6070 h1         1 GQK       0.055200
     43 H10         -1.0110    14.5570    -5.1510 h1         1 GQK       0.055200
     44 H11          2.2460    13.9040    -3.6580 h1         1 GQK       0.055200
     45 H12          2.9870    13.5880    -5.2370 h1         1 GQK       0.055200
     46 H13          2.5360    11.4880    -3.9680 h1         1 GQK       0.046450
     47 H14          1.6360    11.5580    -5.4930 h1         1 GQK       0.046450
     48 H16          0.1470     9.9270    -4.5210 h1         1 GQK       0.053200
     49 H17         -0.8420    10.3630    -3.1210 h1         1 GQK       0.053200
     50 H18          0.2640     7.9690    -2.6430 hn         1 GQK       0.334500
     51 H19          3.0110     8.3200    -1.6190 h1         1 GQK       0.091700
     52 H20          0.7170     8.7060     0.0510 hc         1 GQK       0.051700
     53 H21          2.4220     8.6890     0.5230 hc         1 GQK       0.051700
     54 H22          1.4880     7.1860     0.5240 hc         1 GQK       0.051700
     55 H23          3.5430     6.0350    -0.3070 hn         1 GQK       0.339500
     56 H24          4.9040     4.3380    -2.1900 hc         1 GQK       0.051700
     57 H25          4.0430     2.8310    -2.5320 hc         1 GQK       0.051700
     58 H26          2.2740     2.7510    -4.1950 ha         1 GQK       0.125500
     59 H27          1.3590     3.7370    -6.2590 ha         1 GQK       0.137000
     60 H28          1.8900     8.1670    -6.6280 h1         1 GQK       0.039700
     61 H29          1.7830     7.8100    -8.3580 h1         1 GQK       0.039700
     62 H30          3.3100     7.5670    -7.4970 h1         1 GQK       0.039700
     63 H31          3.4560     7.3770    -5.4430 ha         1 GQK       0.137000
     64 H32          4.3670     6.3840    -3.3770 ha         1 GQK       0.125500
     65 H33          3.3960     1.6080    -0.8280 hn         1 GQK       0.312500
     66 H34         -1.7740    -0.0020     1.1980 ha         1 GQK       0.130000
     67 H35         -0.5410    -0.0040     3.3330 ha         1 GQK       0.129500
     68 H36          1.9250    -0.0020     3.3320 ha         1 GQK       0.125500
     69 H37          5.9870     0.8340     0.3900 h1         1 GQK       0.038700
     70 H38          6.8340     2.7880     0.4650 ho         1 GQK       0.398000
     71 C10          6.1220     0.8730     2.5350 c3         1 GQK       0.127800
     72 C23          3.4790     3.4740    -0.0030 c          1 GQK       0.654100
     73 C11          7.6430     1.0160     2.6090 c3         1 GQK      -0.119100
     74 C12          5.4810     1.6380     3.6940 c3         1 GQK      -0.119100
     75 O13          5.7690    -0.5090     2.6230 oh         1 GQK      -0.613800
     76 C26          2.0900     6.4020    -1.6930 c          1 GQK       0.651100
     77 O49          3.7610     4.1100     0.9900 o          1 GQK      -0.592100
     78 C29          1.1580     9.8040    -2.6510 c          1 GQK       0.658100
     79 H7          -0.7500    12.1340    -5.4420 h1         1 GQK       0.046450
     80 H39          7.9040     2.0640     2.6970 hc         1 GQK       0.048200
     81 H40          8.0880     0.6080     1.7100 hc         1 GQK       0.048200
     82 H41          8.0150     0.4780     3.4720 hc         1 GQK       0.048200
     83 H42          4.4900     1.2420     3.8840 hc         1 GQK       0.048200
     84 H43          5.4070     2.6880     3.4370 hc         1 GQK       0.048200
     85 H44          6.0910     1.5260     4.5820 hc         1 GQK       0.048200
     86 H45          6.3990    -0.9610     3.1590 ho         1 GQK       0.407000
@<TRIPOS>BOND
     1     7     8 1
     2     7    12 1
     3    13    12 1
     4    13    78 1
     5     8     9 1
     6    12    11 1
     7    78    14 2
     8    78    15 1
     9    15    16 1
    10     9    10 1
    11    11    10 1
    12    17    16 1
    13    16    76 1
    14    76    18 2
    15    76    19 1
    16    23    22 ar
    17    23    24 ar
    18    22    21 ar
    19    19     6 1
    20    25    24 1
    21    25    26 1
    22    24    27 ar
    23    21    20 1
    24    21    28 ar
    25     6    20 1
    26     6    72 1
    27    77    72 2
    28    27    28 ar
    29    72    29 1
    30     1    30 ar
    31     1     2 ar
    32    30    31 ar
    33     2     3 ar
    34    29     5 1
    35    74    71 1
    36    31    32 ar
    37    75    71 1
    38     3    32 ar
    39     3     4 1
    40     5     4 1
    41     5    33 1
    42    71    33 1
    43    71    73 1
    44    33    34 1
    45     1    35 1
    46     2    36 1
    47     4    37 1
    48     4    38 1
    49     5    39 1
    50     6    40 1
    51     7    79 1
    52     7    41 1
    53     8    42 1
    54     8    43 1
    55    10    44 1
    56    10    45 1
    57    11    46 1
    58    11    47 1
    59    13    48 1
    60    13    49 1
    61    15    50 1
    62    16    51 1
    63    17    52 1
    64    17    53 1
    65    17    54 1
    66    19    55 1
    67    20    56 1
    68    20    57 1
    69    22    58 1
    70    23    59 1
    71    26    60 1
    72    26    61 1
    73    26    62 1
    74    27    63 1
    75    28    64 1
    76    29    65 1
    77    30    66 1
    78    31    67 1
    79    32    68 1
    80    33    69 1
    81    34    70 1
    82    73    80 1
    83    73    81 1
    84    73    82 1
    85    74    83 1
    86    74    84 1
    87    74    85 1
    88    75    86 1
@<TRIPOS>SUBSTRUCTURE
     1 GQK         1 TEMP              0 ****  ****    0 ROOT
