@<TRIPOS>MOLECULE
GQL
   41    44     1     0     0
SMALL
bcc


@<TRIPOS>ATOM
      1 C1           0.0000     0.0000     0.0000 ca         1 GQL      -0.200100
      2 C2           1.4010     0.0000     0.0000 cp         1 GQL       0.014000
      3 C3           2.1660     0.0000    -1.2680 cp         1 GQL       0.036000
      4 C4           2.0520     0.0000     1.2360 ca         1 GQL      -0.212300
      5 C5           1.2990     0.0010     2.3960 ca         1 GQL       0.398200
      6 C7          -0.7010    -0.0000     1.2260 ca         1 GQL       0.513300
      7 C9          -2.2620    -0.0020    -0.3340 cc         1 GQL       0.450500
      8 C10         -1.0370    -0.0070    -1.0440 cc         1 GQL      -0.265800
      9 C11         -0.8550    -0.0140    -2.4260 cf         1 GQL       0.293900
     10 C13         -2.0080     0.1670    -3.3220 ca         1 GQL      -0.106800
     11 C14         -1.9440     1.0870    -4.3730 ca         1 GQL      -0.110000
     12 C15         -3.0270     1.2540    -5.2100 ca         1 GQL      -0.057000
     13 C19         -6.4600    -0.9030    -4.7050 c3         1 GQL       0.244700
     14 C17         -4.2510    -0.4080    -3.9770 ca         1 GQL       0.150100
     15 C20         -3.1720    -0.5840    -3.1290 ca         1 GQL      -0.112000
     16 C16         -4.1790     0.5140    -5.0130 ca         1 GQL      -0.188000
     17 O12          0.3790    -0.1860    -2.9420 oh         1 GQL      -0.472100
     18 N8          -2.0190    -0.0000     0.9510 nd         1 GQL      -0.531700
     19 N6          -0.0160     0.0000     2.3710 nb         1 GQL      -0.523000
     20 C27          2.1090     1.1030    -2.1200 ca         1 GQL      -0.126500
     21 C25          2.8250     1.0990    -3.3020 ca         1 GQL       0.126900
     22 F26          2.7700     2.1680    -4.1280 f          1 GQL      -0.124900
     23 C24          3.5990     0.0020    -3.6420 ca         1 GQL      -0.178000
     24 C22          3.6600    -1.0960    -2.7990 ca         1 GQL       0.126900
     25 F23          4.4160    -2.1630    -3.1350 f          1 GQL      -0.124900
     26 C21          2.9520    -1.0990    -1.6120 ca         1 GQL      -0.126500
     27 H4           3.1340     0.0000     1.2850 ha         1 GQL       0.119000
     28 H5           1.8060     0.0010     3.3530 h4         1 GQL      -0.018900
     29 H9          -3.1130     0.5430    -0.7260 h4         1 GQL       0.013800
     30 H14         -1.0440     1.6690    -4.5310 ha         1 GQL       0.118000
     31 H15         -2.9770     1.9690    -6.0220 ha         1 GQL       0.108000
     32 H19         -6.1320    -1.1220    -5.7140 h1         1 GQL       0.000033
     33 H19A        -6.7890     0.1270    -4.6480 h1         1 GQL       0.000033
     34 H19B        -7.2800    -1.5600    -4.4410 h1         1 GQL       0.000033
     35 H20         -3.1930    -1.3690    -2.3830 ha         1 GQL       0.134000
     36 H16         -5.0270     0.6490    -5.6740 ha         1 GQL       0.124000
     37 HO12         0.3620    -0.8890    -3.5690 ho         1 GQL       0.417000
     38 H27          1.5650     1.9900    -1.8200 ha         1 GQL       0.129500
     39 H24          4.1580     0.0020    -4.5690 ha         1 GQL       0.134000
     40 H21          3.0000    -1.9580    -0.9540 ha         1 GQL       0.129500
     41 O18         -5.3830    -1.1370    -3.7930 os         1 GQL      -0.302900
@<TRIPOS>BOND
     1     1     2 ar  
     2     1     6 ar  
     3     1     8 1   
     4     2     3 1   
     5     2     4 ar  
     6     3    20 ar  
     7     3    26 ar  
     8     4     5 ar  
     9     4    27 1   
    10     5    19 ar  
    11     5    28 1   
    12     6    18 1   
    13     6    19 ar  
    14     7     8 1   
    15     7    18 2   
    16     7    29 1   
    17     8     9 2   
    18     9    10 1   
    19     9    17 1   
    20    10    11 ar  
    21    10    15 ar  
    22    11    12 ar  
    23    11    30 1   
    24    12    16 ar  
    25    12    31 1   
    26    13    32 1   
    27    13    33 1   
    28    13    34 1   
    29    13    41 1   
    30    14    15 ar  
    31    14    16 ar  
    32    14    41 1   
    33    15    35 1   
    34    16    36 1   
    35    17    37 1   
    36    20    21 ar  
    37    20    38 1   
    38    21    22 1   
    39    21    23 ar  
    40    23    24 ar  
    41    23    39 1   
    42    24    25 1   
    43    24    26 ar  
    44    26    40 1   
@<TRIPOS>SUBSTRUCTURE
     1 GQL         1 TEMP              0 ****  ****    0 ROOT
