@<TRIPOS>MOLECULE
molecule
   41    44     1     0     0
SMALL
bcc


@<TRIPOS>ATOM
      1 C1           0.0000     0.0000     0.0000 ca         1 GQL      -0.213100
      2 C2           1.4010     0.0000     0.0000 cp         1 GQL       0.017000
      3 C3           2.1660     0.0000    -1.2680 cp         1 GQL       0.026000
      4 C4           2.0520     0.0000     1.2360 ca         1 GQL      -0.246300
      5 C5           1.2990     0.0010     2.3960 ca         1 GQL       0.430200
      6 C7          -0.7010    -0.0000     1.2260 ca         1 GQL       0.607300
      7 C9          -2.2620    -0.0020    -0.3340 cc         1 GQL       0.479500
      8 C10         -1.0370    -0.0070    -1.0440 cc         1 GQL      -0.257800
      9 C11         -0.8550    -0.0140    -2.4260 cf         1 GQL       0.259900
     10 C13         -2.0080     0.1670    -3.3220 ca         1 GQL      -0.103800
     11 C14         -1.9440     1.0870    -4.3730 ca         1 GQL      -0.133000
     12 C15         -3.0270     1.2540    -5.2100 ca         1 GQL      -0.091000
     13 C19         -6.4600    -0.9030    -4.7050 c3         1 GQL       0.127700
     14 C17         -4.2510    -0.4080    -3.9770 ca         1 GQL       0.140100
     15 C20         -3.1720    -0.5840    -3.1290 ca         1 GQL      -0.131000
     16 C16         -4.1790     0.5140    -5.0130 ca         1 GQL      -0.199000
     17 O12          0.3790    -0.1860    -2.9420 oh         1 GQL      -0.484100
     18 N8          -2.0190    -0.0000     0.9510 nd         1 GQL      -0.624700
     19 N6          -0.0160     0.0000     2.3710 nb         1 GQL      -0.651000
     20 C27          2.1090     1.1030    -2.1200 ca         1 GQL      -0.154500
     21 C25          2.8250     1.0990    -3.3020 ca         1 GQL       0.151900
     22 F26          2.7700     2.1680    -4.1280 f          1 GQL      -0.135900
     23 C24          3.5990     0.0020    -3.6420 ca         1 GQL      -0.217000
     24 C22          3.6600    -1.0960    -2.7990 ca         1 GQL       0.151900
     25 F23          4.4160    -2.1630    -3.1350 f          1 GQL      -0.135900
     26 C21          2.9520    -1.0990    -1.6120 ca         1 GQL      -0.154500
     27 H4           3.1340     0.0000     1.2850 ha         1 GQL       0.145000
     28 H5           1.8060     0.0010     3.3530 h4         1 GQL       0.029100
     29 H9          -3.1130     0.5430    -0.7260 h4         1 GQL       0.060800
     30 H14         -1.0440     1.6690    -4.5310 ha         1 GQL       0.146000
     31 H15         -2.9770     1.9690    -6.0220 ha         1 GQL       0.141000
     32 H19         -7.2950    -1.5440    -4.4490 h1         1 GQL       0.045033
     33 H19A        -6.7600     0.1340    -4.6160 h1         1 GQL       0.045033
     34 H19B        -6.1490    -1.1040    -5.7230 h1         1 GQL       0.045033
     35 H20         -3.1930    -1.3690    -2.3830 ha         1 GQL       0.161000
     36 H16         -5.0270     0.6490    -5.6740 ha         1 GQL       0.142000
     37 HO12         0.3620    -0.8890    -3.5690 ho         1 GQL       0.438000
     38 H27          1.5650     1.9900    -1.8200 ha         1 GQL       0.154500
     39 H24          4.1580     0.0020    -4.5690 ha         1 GQL       0.158000
     40 H21          3.0000    -1.9580    -0.9540 ha         1 GQL       0.154500
     41 O18         -5.3830    -1.1370    -3.7930 os         1 GQL      -0.322900
@<TRIPOS>BOND
     1     1     2 ar
     2     1     6 ar
     3     1     8 1
     4     2     3 1
     5     2     4 ar
     6     3    20 ar
     7     3    26 ar
     8     4     5 ar
     9     5    19 ar
    10     6    18 1
    11     6    19 ar
    12     7     8 1
    13     7    18 2
    14     8     9 2
    15     9    10 1
    16     9    17 1
    17    10    11 ar
    18    10    15 ar
    19    11    12 ar
    20    12    16 ar
    21    13    41 1
    22    41    14 1
    23    14    15 ar
    24    14    16 ar
    25    20    21 ar
    26    21    22 1
    27    21    23 ar
    28    23    24 ar
    29    24    25 1
    30    24    26 ar
    31     4    27 1
    32     5    28 1
    33     7    29 1
    34    11    30 1
    35    12    31 1
    36    13    32 1
    37    13    33 1
    38    13    34 1
    39    15    35 1
    40    16    36 1
    41    17    37 1
    42    20    38 1
    43    23    39 1
    44    26    40 1
@<TRIPOS>SUBSTRUCTURE
     1 GQL         1 TEMP              0 ****  ****    0 ROOT
