@<TRIPOS>MOLECULE
molecule
   24    25     1     0     0
SMALL
bcc


@<TRIPOS>ATOM
      1 N1           0.0000     0.0000     0.0000 na         1 GQM      -0.049600
      2 C4           1.8250    -0.0020     4.2950 ca         1 GQM      -0.049000
      3 C5           0.6220    -0.0010     3.5940 ca         1 GQM      -0.171500
      4 C6          -0.5900    -0.0010     4.2900 ca         1 GQM       0.180100
      5 C7          -0.5870    -0.0010     5.6750 ca         1 GQM      -0.234000
      6 C8           0.6260    -0.0010     2.1100 cc         1 GQM       0.402800
      7 C10          1.3500     0.0000     0.0000 cc         1 GQM      -0.118300
      8 C1           1.8880    -0.0020     8.3750 c3         1 GQM       0.128700
      9 C2           0.6150    -0.0010     6.3670 ca         1 GQM       0.172100
     10 C3           1.8190    -0.0020     5.6750 ca         1 GQM      -0.248000
     11 C9           1.7680     0.0000     1.2850 cd         1 GQM      -0.343300
     12 N2          -0.4350    -0.0010     1.3320 nd         1 GQM      -0.479800
     13 O1           0.6150    -0.0020     7.7260 os         1 GQM      -0.327900
     14 O2          -1.7670     0.0000     3.6120 oh         1 GQM      -0.482100
     15 H1          -0.5880     0.0000    -0.8100 hn         1 GQM       0.327700
     16 H2           2.7660    -0.0030     3.7570 ha         1 GQM       0.139000
     17 H3          -1.5250    -0.0010     6.2190 ha         1 GQM       0.150000
     18 H4           1.9870     0.0000    -0.8770 h4         1 GQM       0.166000
     19 H5           2.4420     0.8830     8.0840 h1         1 GQM       0.042367
     20 H6           1.7460    -0.0020     9.4490 h1         1 GQM       0.042367
     21 H7           2.4420    -0.8860     8.0840 h1         1 GQM       0.042367
     22 H8           2.7550    -0.0020     6.2190 ha         1 GQM       0.137000
     23 H9           2.7980    -0.0000     1.6210 ha         1 GQM       0.151000
     24 H10         -2.3360     0.6620     3.9690 ho         1 GQM       0.420000
@<TRIPOS>BOND
     1     1     7 1
     2     1    12 1
     3     7    11 2
     4    12     6 2
     5    11     6 1
     6     6     3 1
     7     3     2 ar
     8     3     4 ar
     9     2    10 ar
    10    14     4 1
    11     4     5 ar
    12    10     9 ar
    13     5     9 ar
    14     9    13 1
    15    13     8 1
    16     1    15 1
    17     2    16 1
    18     5    17 1
    19     7    18 1
    20     8    19 1
    21     8    20 1
    22     8    21 1
    23    10    22 1
    24    11    23 1
    25    14    24 1
@<TRIPOS>SUBSTRUCTURE
     1 GQM         1 TEMP              0 ****  ****    0 ROOT
