@<TRIPOS>MOLECULE
GQN
   45    47     1     0     0
SMALL
bcc


@<TRIPOS>ATOM
      1 C17          0.0000     0.0000     0.0000 ca         1 GQN      -0.053000
      2 C16          1.3970     0.0000     0.0000 ca         1 GQN      -0.164600
      3 C14          2.1360    -0.0010    -1.2790 c          1 GQN       0.582700
      4 C12          2.1590     0.0940    -3.6580 ca         1 GQN      -0.133400
      5 C11          3.4010    -0.5000    -3.7890 ca         1 GQN       0.005000
      6 O15          3.3520    -0.0000    -1.2790 o          1 GQN      -0.630100
      7 N13          1.4620    -0.0000    -2.4460 ns         1 GQN      -0.028100
      8 C06          4.0940    -0.4030    -5.0000 ca         1 GQN      -0.178600
      9 C07          5.4190    -1.0350    -5.1460 c          1 GQN       0.599700
     10 N09          6.0850    -0.9410    -6.3130 ns         1 GQN      -0.066400
     11 O10          7.3580    -1.5480    -6.4530 oh         1 GQN      -0.436100
     12 O08          5.9100    -1.6410    -4.2120 o          1 GQN      -0.612100
     13 C05          3.5280     0.2930    -6.0700 ca         1 GQN      -0.058000
     14 C04          2.2900     0.8830    -5.9340 ca         1 GQN      -0.205000
     15 C03          1.6030     0.7930    -4.7300 ca         1 GQN       0.144100
     16 O02          0.3840     1.3750    -4.6000 os         1 GQN      -0.314900
     17 C01         -0.1300     2.0650    -5.7420 c3         1 GQN       0.248700
     18 C27          2.0950     0.0000     1.2110 ca         1 GQN      -0.053000
     19 C26          1.4050     0.0010     2.4010 ca         1 GQN      -0.113500
     20 C19          0.0100     0.0010     2.4010 cp         1 GQN      -0.002000
     21 C18         -0.6870     0.0010     1.1930 ca         1 GQN      -0.113500
     22 C20         -0.7310     0.0020     3.6840 cp         1 GQN      -0.041000
     23 C25         -0.0370     0.0080     4.8930 ca         1 GQN      -0.094500
     24 C24         -0.7330     0.0080     6.0850 ca         1 GQN      -0.098500
     25 C23         -2.1160     0.0020     6.0820 ca         1 GQN      -0.096000
     26 C22         -2.8100    -0.0040     4.8850 ca         1 GQN      -0.098500
     27 C21         -2.1250     0.0020     3.6870 ca         1 GQN      -0.094500
     28 H1          -0.5420    -0.0010    -0.9380 ha         1 GQN       0.116000
     29 H2           3.7970    -1.1110    -2.9870 ha         1 GQN       0.168000
     30 H3           0.4660    -0.1020    -2.4490 hn         1 GQN       0.178500
     31 H4           5.6890    -0.4280    -7.0750 hn         1 GQN       0.158500
     32 H5           7.6510    -1.4610    -7.3450 ho         1 GQN       0.389000
     33 H6           4.0620     0.3670    -7.0100 ha         1 GQN       0.096000
     34 H7           1.8550     1.4250    -6.7650 ha         1 GQN       0.122000
     35 H8           0.5460     2.8660    -6.0140 h1         1 GQN      -0.000633
     36 H9          -1.1030     2.4780    -5.5060 h1         1 GQN      -0.000633
     37 H10         -0.2230     1.3730    -6.5700 h1         1 GQN      -0.000633
     38 H11          3.1780    -0.0000     1.2120 ha         1 GQN       0.116000
     39 H12          1.9460     0.0010     3.3400 ha         1 GQN       0.115500
     40 H13         -1.7710     0.0010     1.1930 ha         1 GQN       0.115500
     41 H14          1.0460     0.0120     4.8980 ha         1 GQN       0.111500
     42 H15         -0.1950     0.0130     7.0250 ha         1 GQN       0.103500
     43 H16         -2.6580     0.0000     7.0200 ha         1 GQN       0.102000
     44 H17         -3.8930    -0.0060     4.8890 ha         1 GQN       0.103500
     45 H18         -2.6700    -0.0030     2.7510 ha         1 GQN       0.111500
@<TRIPOS>BOND
     1     1     2 ar  
     2     1    21 ar  
     3     1    28 1   
     4     2     3 1   
     5     2    18 ar  
     6     3     6 2   
     7     3     7 1   
     8     4     5 ar  
     9     4     7 1   
    10     4    15 ar  
    11     5     8 ar  
    12     5    29 1   
    13     7    30 1   
    14     8     9 1   
    15     8    13 ar  
    16     9    10 1   
    17     9    12 2   
    18    10    11 1   
    19    10    31 1   
    20    11    32 1   
    21    13    14 ar  
    22    13    33 1   
    23    14    15 ar  
    24    14    34 1   
    25    15    16 1   
    26    16    17 1   
    27    17    35 1   
    28    17    36 1   
    29    17    37 1   
    30    18    19 ar  
    31    18    38 1   
    32    19    20 ar  
    33    19    39 1   
    34    20    21 ar  
    35    20    22 1   
    36    21    40 1   
    37    22    23 ar  
    38    22    27 ar  
    39    23    24 ar  
    40    23    41 1   
    41    24    25 ar  
    42    24    42 1   
    43    25    26 ar  
    44    25    43 1   
    45    26    27 ar  
    46    26    44 1   
    47    27    45 1   
@<TRIPOS>SUBSTRUCTURE
     1 GQN         1 TEMP              0 ****  ****    0 ROOT
