@<TRIPOS>MOLECULE
molecule
   28    30     1     0     0
SMALL
bcc


@<TRIPOS>ATOM
      1 N1           0.0000     0.0000     0.0000 nc         1 GQP      -0.601100
      2 C4           1.7660     0.0010    -1.3440 ca         1 GQP      -0.090200
      3 C5           1.3570     0.0000     0.0000 ca         1 GQP       0.090400
      4 C6           2.3210     0.0000     1.0120 ca         1 GQP      -0.066000
      5 C7          -0.4380    -0.0000    -1.2250 cd         1 GQP       0.429700
      6 C10         -0.5330    -2.1680    -4.2290 ca         1 GQP      -0.082000
      7 C13          1.9350    -3.2530    -4.8480 ca         1 GQP      -0.166000
      8 C1           3.6480     0.0010     0.6880 ca         1 GQP      -0.148000
      9 C11         -0.4490    -3.4640    -4.7000 ca         1 GQP      -0.166000
     10 C12          0.7860    -4.0080    -5.0110 ca         1 GQP       0.145900
     11 C14          1.8490    -1.9590    -4.3710 ca         1 GQP      -0.082000
     12 C2           4.0530     0.0010    -0.6390 ca         1 GQP      -0.113000
     13 C3           3.1200     0.0020    -1.6540 ca         1 GQP      -0.129000
     14 C9           0.6150    -1.4150    -4.0660 ca         1 GQP      -0.139300
     15 N2           0.6080     0.0010    -2.0950 na         1 GQP      -0.156300
     16 H1           2.0160    -0.0000     2.0510 ha         1 GQP       0.142000
     17 H2          -1.4830    -0.0000    -1.5110 h5         1 GQP       0.070800
     18 H3           1.3350     0.5870    -3.9670 h1         1 GQP       0.067700
     19 H4          -0.4240     0.4320    -3.8630 h1         1 GQP       0.067700
     20 H5          -1.4990    -1.7410    -3.9860 ha         1 GQP       0.137500
     21 H6           2.9020    -3.6780    -5.0890 ha         1 GQP       0.149500
     22 H7           4.3920     0.0010     1.4760 ha         1 GQP       0.133000
     23 H8          -1.3490    -4.0540    -4.8280 ha         1 GQP       0.149500
     24 H9           2.7470    -1.3680    -4.2440 ha         1 GQP       0.137500
     25 H10          5.1090     0.0020    -0.8800 ha         1 GQP       0.131000
     26 H11          3.4410     0.0020    -2.6890 ha         1 GQP       0.121000
     27 C8           0.5210     0.0010    -3.5570 c3         1 GQP       0.102600
     28 F1           0.8700    -5.2750    -5.4730 f          1 GQP      -0.136900
@<TRIPOS>BOND
     1     8     4 ar
     2     8    12 ar
     3     4     3 ar
     4    12    13 ar
     5     3     2 ar
     6     3     1 1
     7    13     2 ar
     8     2    15 1
     9     9     6 ar
    10     9    10 ar
    11     1     5 2
    12     6    14 ar
    13    28    10 1
    14    10     7 ar
    15    15     5 1
    16    15    27 1
    17    14    27 1
    18    14    11 ar
    19     7    11 ar
    20     4    16 1
    21     5    17 1
    22    27    18 1
    23    27    19 1
    24     6    20 1
    25     7    21 1
    26     8    22 1
    27     9    23 1
    28    11    24 1
    29    12    25 1
    30    13    26 1
@<TRIPOS>SUBSTRUCTURE
     1 GQP         1 TEMP              0 ****  ****    0 ROOT
