@<TRIPOS>MOLECULE
molecule
   86    87     1     0     0
SMALL
bcc


@<TRIPOS>ATOM
      1 C4           0.0000     0.0000     0.0000 ca         1 GQQ       0.283900
      2 C6           1.9820     0.0000     1.1520 ca         1 GQQ       0.241500
      3 C7           3.4640    -0.0000     1.1560 c          1 GQQ       0.574600
      4 C10          6.0560     0.7680    -1.2850 c          1 GQQ       0.664100
      5 C13          9.2200     1.8180    -2.7860 c          1 GQQ       0.643100
      6 C15         11.2700     2.2820    -4.0170 c3         1 GQQ       0.032700
      7 C17         10.9990     1.3730    -6.3080 ca         1 GQQ      -0.125300
      8 C20          9.8710    -0.6610    -7.8010 ca         1 GQQ      -0.190300
      9 C21          9.2700    -1.7630    -8.6350 c3         1 GQQ       0.159100
     10 C24         11.7080     0.2090    -6.5350 ca         1 GQQ      -0.152000
     11 C28         12.4890     7.1470    -2.4730 c3         1 GQQ       0.735700
     12 C18          9.7250     1.5190    -6.8240 ca         1 GQQ      -0.152000
     13 C19          9.1610     0.5020    -7.5700 ca         1 GQQ      -0.088500
     14 N22          7.9660    -2.1160    -8.1050 nz         1 GQQ      -0.843600
     15 C23         11.1420    -0.8110    -7.2770 ca         1 GQQ      -0.088500
     16 C16         11.6150     2.4840    -5.4950 c3         1 GQQ      -0.162100
     17 C25         11.9960     3.3350    -3.1770 c3         1 GQQ      -0.041400
     18 S27         11.8450     5.6360    -1.6920 s6         1 GQQ      -0.774000
     19 O29         12.7820     5.1130    -0.6880 o          1 GQQ      -0.157800
     20 O30         12.7610     6.3430    -2.5980 o          1 GQQ      -0.157800
     21 N14          9.8240     2.4200    -3.8300 ns         1 GQQ      -0.499900
     22 O31          9.8730     1.1620    -2.0030 o          1 GQQ      -0.569100
     23 C12          7.7320     1.9590    -2.5930 c3         1 GQQ       0.066700
     24 C32          7.3780     3.4380    -2.4210 c3         1 GQQ      -0.403400
     25 C33          5.8570     3.5930    -2.3500 c3         1 GQQ      -0.077700
     26 C38          5.5080     5.0530    -2.0540 c3         1 GQQ      -0.136600
     27 C34          5.2400     3.1810    -3.6880 c3         1 GQQ      -0.136600
     28 N11          7.3220     1.2170    -1.3990 ns         1 GQQ      -0.541900
     29 O39          5.2840     0.8930    -2.2120 o          1 GQQ      -0.664100
     30 C9           5.6010     0.1100    -0.0080 c3         1 GQQ       0.038700
     31 C40          6.2190    -1.2860     0.0950 c3         1 GQQ      -0.156400
     32 C41          7.7360    -1.1620     0.2480 c3         1 GQQ      -0.194700
     33 C43          8.0620    -0.5060     1.5900 c3         1 GQQ      -0.090600
     34 C42          8.3690    -2.5550     0.1930 c3         1 GQQ      -0.090600
     35 N8           4.1400    -0.0010    -0.0090 ns         1 GQQ      -0.536900
     36 O44          4.0690     0.0000     2.2100 o          1 GQQ      -0.589100
     37 N6           1.3180     0.0000     0.0000 nb         1 GQQ      -0.646000
     38 C3          -0.6960     0.0050     1.2010 ca         1 GQQ       0.320900
     39 N2          -0.0410     0.0110     2.3480 nb         1 GQQ      -0.650000
     40 C1           1.2800     0.0110     2.3570 ca         1 GQQ       0.362900
     41 H1          -0.5420     0.0020    -0.9380 h4         1 GQQ       0.034100
     42 H2          11.5970     1.2860    -3.7450 h1         1 GQQ       0.049700
     43 H3           9.9180    -2.6310    -8.6070 hx         1 GQQ       0.114700
     44 H4           9.1650    -1.4250    -9.6590 hx         1 GQQ       0.114700
     45 H5          12.7060     0.0950    -6.1310 ha         1 GQQ       0.176000
     46 H6          10.3440     4.6960    -3.3330 h1         1 GQQ       0.077200
     47 H7          10.3620     3.7380    -1.8460 h1         1 GQQ       0.077200
     48 H8          12.6230     7.9140    -1.7200 h1         1 GQQ       0.044367
     49 H9          13.4410     6.9330    -2.9430 h1         1 GQQ       0.044367
     50 H10         11.7870     7.4950    -3.2210 h1         1 GQQ       0.044367
     51 H11          9.1700     2.4330    -6.6460 ha         1 GQQ       0.176000
     52 H12          8.2010     0.6540    -8.0480 ha         1 GQQ       0.140000
     53 H13          7.2880    -1.4470    -8.4140 hn         1 GQQ       0.470800
     54 H14          8.0010    -2.1170    -7.1050 hn         1 GQQ       0.470800
     55 H16         11.7330    -1.6820    -7.5310 ha         1 GQQ       0.140000
     56 H17         12.0190     1.5640    -5.9000 hc         1 GQQ       0.171700
     57 H18         10.7190     2.7540    -6.0400 hc         1 GQQ       0.171700
     58 H19         12.5600     2.8460    -2.3930 hc         1 GQQ       0.063200
     59 H20         12.6720     3.8990    -3.8100 hc         1 GQQ       0.063200
     60 H21          9.7430     2.0300    -4.7480 hn         1 GQQ       0.257500
     61 H22          7.2220     1.5690    -3.4650 h1         1 GQQ       0.036700
     62 H23          8.2280     4.0470    -2.7030 hc         1 GQQ       0.164200
     63 H24          6.5330     3.6820    -3.0530 hc         1 GQQ       0.164200
     64 H25          5.3890     2.6230    -2.4620 hc         1 GQQ       0.207700
     65 H26          6.0810     5.7010    -2.7070 hc         1 GQQ       0.047867
     66 H27          5.7460     5.2790    -1.0220 hc         1 GQQ       0.047867
     67 H28          4.4510     5.2130    -2.2250 hc         1 GQQ       0.047867
     68 H29          5.5110     3.9040    -4.4480 hc         1 GQQ       0.047867
     69 H30          5.6100     2.2040    -3.9710 hc         1 GQQ       0.047867
     70 H31          4.1610     3.1450    -3.5920 hc         1 GQQ       0.047867
     71 H32          8.0720     0.7110    -0.9720 hn         1 GQQ       0.341500
     72 H33          5.9190     0.7140     0.8340 h1         1 GQQ       0.099700
     73 H34          5.4320    -2.0210     0.2100 hc         1 GQQ       0.089200
     74 H35          6.7820    -1.4980    -0.8060 hc         1 GQQ       0.089200
     75 H36          8.0160    -0.1160     0.2330 hc         1 GQQ       0.172700
     76 H37          9.1360    -0.4700     1.7230 hc         1 GQQ       0.041867
     77 H38          7.6180    -1.0840     2.3920 hc         1 GQQ       0.041867
     78 H39          7.6620     0.5010     1.6070 hc         1 GQQ       0.041867
     79 H40          9.4260    -2.4800     0.4210 hc         1 GQQ       0.041867
     80 H41          8.2430    -2.9700    -0.7990 hc         1 GQQ       0.041867
     81 H42          7.8880    -3.1990     0.9190 hc         1 GQQ       0.041867
     82 H43          3.7120     0.3630    -0.8370 hn         1 GQQ       0.338500
     83 H44         -1.7790     0.0050     1.1990 h4         1 GQQ       0.039100
     84 H45          1.8150    -0.0580     3.2960 h4         1 GQQ       0.062100
     85 H223         7.4270    -2.5660    -8.8180 hn         1 GQQ       0.470800
     86 C26         10.9740     4.2820    -2.5550 c3         1 GQQ       0.075400
@<TRIPOS>BOND
     1    39    38 ar
     2    39    40 ar
     3    38     1 ar
     4    40     2 ar
     5     1    37 ar
     6     2    37 ar
     7     2     3 1
     8     3    36 2
     9     3    35 1
    10    33    32 1
    11    35    30 1
    12    34    32 1
    13    31    32 1
    14    31    30 1
    15    30     4 1
    16     4    29 2
    17     4    28 1
    18    28    23 1
    19    25    27 1
    20    25    26 1
    21    25    24 1
    22    23    24 1
    23    23     5 1
    24    22     5 2
    25     5    21 1
    26     9    14 1
    27     9     8 1
    28    15    10 ar
    29    15     8 ar
    30    10     7 ar
    31    21     6 1
    32     8    13 ar
    33     6    17 1
    34     6    16 1
    35    11    18 1
    36     7    12 ar
    37     7    16 1
    38    13    12 ar
    39    17    86 1
    40    86    18 1
    41    18    19 2
    42    18    20 2
    43     1    41 1
    44     6    42 1
    45     9    43 1
    46     9    44 1
    47    10    45 1
    48    86    46 1
    49    86    47 1
    50    11    48 1
    51    11    49 1
    52    11    50 1
    53    12    51 1
    54    13    52 1
    55    14    53 1
    56    14    54 1
    57    15    55 1
    58    16    56 1
    59    16    57 1
    60    17    58 1
    61    17    59 1
    62    21    60 1
    63    23    61 1
    64    24    62 1
    65    24    63 1
    66    25    64 1
    67    26    65 1
    68    26    66 1
    69    26    67 1
    70    27    68 1
    71    27    69 1
    72    27    70 1
    73    28    71 1
    74    30    72 1
    75    31    73 1
    76    31    74 1
    77    32    75 1
    78    33    76 1
    79    33    77 1
    80    33    78 1
    81    34    79 1
    82    34    80 1
    83    34    81 1
    84    35    82 1
    85    38    83 1
    86    40    84 1
    87    85    14 1
@<TRIPOS>SUBSTRUCTURE
     1 GQQ         1 TEMP              0 ****  ****    0 ROOT
