@<TRIPOS>MOLECULE
GQS
   22    23     1     0     0
SMALL
bcc


@<TRIPOS>ATOM
      1 N1           0.0000     0.0000     0.0000 nc         1 GQS      -0.237000
      2 N3          -0.3180     0.0010     3.4970 nu         1 GQS      -0.239300
      3 C4          -1.6860     0.1250     3.7550 ca         1 GQS       0.008600
      4 C5          -2.2340    -0.4460     4.8970 ca         1 GQS      -0.150000
      5 C6          -3.5850    -0.3220     5.1500 ca         1 GQS      -0.052000
      6 C7          -4.3950     0.3710     4.2700 ca         1 GQS      -0.151000
      7 C8          -3.8540     0.9410     3.1290 ca         1 GQS       0.133900
      8 C1           2.1810    -0.0000    -1.2170 c3         1 GQS       0.015600
      9 C2           1.2930     0.0000     0.0000 cd         1 GQS       0.389700
     10 C3           0.1440     0.0000     2.1880 cd         1 GQS       0.524300
     11 C9          -2.5000     0.8240     2.8730 ca         1 GQS      -0.148000
     12 F1          -4.6480     1.6160     2.2700 f          1 GQS      -0.125900
     13 N2          -0.5910     0.0000     1.1130 nc         1 GQS      -0.377000
     14 S1           1.8340     0.0000     1.6800 ss         1 GQS      -0.432800
     15 H2          -1.6000    -0.9890     5.5890 ha         1 GQS       0.109000
     16 H3          -4.0110    -0.7670     6.0410 ha         1 GQS       0.106000
     17 H4          -5.4550     0.4640     4.4700 ha         1 GQS       0.120000
     18 H5           1.9790     0.8820    -1.8120 hc         1 GQS       0.018033
     19 H6           3.2190     0.0030    -0.9070 hc         1 GQS       0.018033
     20 H7           1.9840    -0.8870    -1.8080 hc         1 GQS       0.018033
     21 H9          -2.0760     1.2700     1.9810 ha         1 GQS       0.158000
     22 H1           0.3310    -0.0640     4.2560 hn         1 GQS       0.291800
@<TRIPOS>BOND
     1     1     9 2   
     2     1    13 1   
     3     2     3 1   
     4     2    10 1   
     5     2    22 1   
     6     3     4 ar  
     7     3    11 ar  
     8     4     5 ar  
     9     4    15 1   
    10     5     6 ar  
    11     5    16 1   
    12     6     7 ar  
    13     6    17 1   
    14     7    11 ar  
    15     7    12 1   
    16     8     9 1   
    17     8    18 1   
    18     8    19 1   
    19     8    20 1   
    20     9    14 1   
    21    10    13 2   
    22    10    14 1   
    23    11    21 1   
@<TRIPOS>SUBSTRUCTURE
     1 GQS         1 TEMP              0 ****  ****    0 ROOT
