@<TRIPOS>MOLECULE
GQV
   16    16     1     0     0
SMALL
bcc


@<TRIPOS>ATOM
      1 C4           0.0000     0.0000     0.0000 cc         1 GQV      -0.002100
      2 C5           1.4110     0.0000     0.0000 c          1 GQV       0.565700
      3 O1           2.0220     0.0020    -1.0560 o          1 GQV      -0.688500
      4 N            2.0830     0.0000     1.1680 n          1 GQV       0.120000
      5 C            3.5480     0.0000     1.1600 c3         1 GQV       0.050300
      6 O           -0.6870    -0.0000    -1.1740 oh         1 GQV      -0.464100
      7 C3          -0.6680    -0.0070     1.1920 cd         1 GQV      -0.079000
      8 C2           0.0650    -0.0080     2.3880 cd         1 GQV      -0.189000
      9 C1           1.4170    -0.0010     2.3530 cc         1 GQV      -0.151400
     10 H1           3.9060     0.8840     0.6470 h1         1 GQV       0.025033
     11 H2           3.9150     0.0010     2.1790 h1         1 GQV       0.025033
     12 H3           3.9060    -0.8850     0.6480 h1         1 GQV       0.025033
     13 H4          -0.9210     0.8850    -1.4010 ho         1 GQV       0.400000
     14 H5          -1.7510    -0.0100     1.2130 ha         1 GQV       0.116000
     15 H6          -0.4520    -0.0110     3.3400 ha         1 GQV       0.121000
     16 H7           1.9760    -0.0010     3.2810 h4         1 GQV       0.127000
@<TRIPOS>BOND
     1     1     2 1   
     2     1     6 1   
     3     1     7 2   
     4     2     3 2   
     5     2     4 1   
     6     4     5 1   
     7     4     9 1   
     8     5    10 1   
     9     5    11 1   
    10     5    12 1   
    11     6    13 1   
    12     7     8 1   
    13     7    14 1   
    14     8     9 2   
    15     8    15 1   
    16     9    16 1   
@<TRIPOS>SUBSTRUCTURE
     1 GQV         1 TEMP              0 ****  ****    0 ROOT
