@<TRIPOS>MOLECULE
molecule
   16    16     1     0     0
SMALL
bcc


@<TRIPOS>ATOM
      1 C4           0.0000     0.0000     0.0000 cc         1 GQV      -0.025100
      2 C5           1.4110     0.0000     0.0000 c          1 GQV       0.666700
      3 O1           2.0220     0.0020    -1.0560 o          1 GQV      -0.637500
      4 N            2.0830     0.0000     1.1680 n          1 GQV      -0.318000
      5 C            3.5480     0.0000     1.1600 c3         1 GQV       0.084300
      6 O           -0.6870    -0.0000    -1.1740 oh         1 GQV      -0.485100
      7 C3          -0.6680    -0.0070     1.1920 cd         1 GQV      -0.082000
      8 C2           0.0650    -0.0080     2.3880 cd         1 GQV      -0.237000
      9 C1           1.4170    -0.0010     2.3530 cc         1 GQV      -0.001400
     10 H1           3.9060     0.8840     0.6470 h1         1 GQV       0.057033
     11 H2           3.9150     0.0010     2.1790 h1         1 GQV       0.057033
     12 H3           3.9060    -0.8850     0.6480 h1         1 GQV       0.057033
     13 H4          -0.9210     0.8850    -1.4010 ho         1 GQV       0.416000
     14 H5          -1.7510    -0.0100     1.2130 ha         1 GQV       0.145000
     15 H6          -0.4520    -0.0110     3.3400 ha         1 GQV       0.149000
     16 H7           1.9760    -0.0010     3.2810 h4         1 GQV       0.154000
@<TRIPOS>BOND
     1     5     4 1
     2     3     2 2
     3     4     2 1
     4     4     9 1
     5     2     1 1
     6     9     8 2
     7     8     7 1
     8     1     6 1
     9     1     7 2
    10     5    10 1
    11     5    11 1
    12     5    12 1
    13     6    13 1
    14     7    14 1
    15     8    15 1
    16     9    16 1
@<TRIPOS>SUBSTRUCTURE
     1 GQV         1 TEMP              0 ****  ****    0 ROOT
