@<TRIPOS>MOLECULE
molecule
   34    36     1     0     0
SMALL
bcc


@<TRIPOS>ATOM
      1 C1           0.0000     0.0000     0.0000 ca         1 GQW      -0.117600
      2 C2           1.3970     0.0000     0.0000 ca         1 GQW      -0.128000
      3 C3           2.0860     0.0000     1.1940 ca         1 GQW      -0.108000
      4 C4           1.3990     0.0010     2.3950 ca         1 GQW       0.003400
      5 C5           0.0080     0.0000     2.4050 ca         1 GQW       0.066600
      6 C6          -1.9350    -0.4940     3.6860 c          1 GQW       0.675700
      7 C7          -2.7090    -0.3850     4.9360 ca         1 GQW      -0.124600
      8 N1          -0.6830     0.0010     3.6220 ns         1 GQW      -0.469100
      9 C8          -2.1460     0.2300     6.0500 ca         1 GQW      -0.087000
     10 N           -0.0680     0.0040    -2.4480 ns         1 GQW      -0.472400
     11 C           -0.7410    -0.0010    -1.2800 c          1 GQW       0.685700
     12 O           -1.9570    -0.0050    -1.2770 o          1 GQW      -0.560100
     13 C10         -4.1500    -0.1660     7.3040 ca         1 GQW      -0.058000
     14 C11         -4.7500    -0.7890     6.1900 ca         1 GQW      -0.089800
     15 C12         -6.0770    -1.3720     6.0660 cc         1 GQW      -0.137200
     16 C13         -6.3480    -1.8860     4.8830 cd         1 GQW      -0.104400
     17 C14         -4.0230    -0.8980     5.0020 ca         1 GQW       0.022900
     18 C15         -0.6940    -0.0050     1.2100 ca         1 GQW      -0.069000
     19 C9          -2.8720     0.3340     7.2240 ca         1 GQW      -0.149000
     20 O1          -0.7790     0.0030    -3.6730 oh         1 GQW      -0.358100
     21 O2          -2.4270    -1.0320     2.7130 o          1 GQW      -0.582100
     22 S           -4.9960    -1.7100     3.7830 ss         1 GQW       0.002500
     23 Cl           2.2750     0.0010     3.8930 cl         1 GQW      -0.105400
     24 H1           1.9380    -0.0010    -0.9380 ha         1 GQW       0.127000
     25 H2           3.1700     0.0000     1.1920 ha         1 GQW       0.149000
     26 H3          -0.2540     0.3830     4.4410 hn         1 GQW       0.337500
     27 H4          -1.1400     0.6280     5.9990 ha         1 GQW       0.127000
     28 H5           0.9320     0.0450    -2.4490 hn         1 GQW       0.320500
     29 H6          -4.7030    -0.0760     8.2310 ha         1 GQW       0.136000
     30 H7          -6.7880    -1.3830     6.8840 ha         1 GQW       0.149000
     31 H8          -7.2880    -2.3580     4.6240 h4         1 GQW       0.173000
     32 H9          -1.7770    -0.0050     1.2160 ha         1 GQW       0.207000
     33 H10         -2.4290     0.8140     8.0880 ha         1 GQW       0.137000
     34 H11         -0.1800    -0.1560    -4.3840 ho         1 GQW       0.398000
@<TRIPOS>BOND
     1     3     2 ar
     2     3     4 ar
     3     2     1 ar
     4    23     4 1
     5     4     5 ar
     6    10    20 1
     7    10    11 1
     8     1    11 1
     9     1    18 ar
    10    11    12 2
    11     5    18 ar
    12     5     8 1
    13    21     6 2
    14     8     6 1
    15     6     7 1
    16     7     9 ar
    17     7    17 ar
    18    22    17 1
    19    22    16 1
    20     9    19 ar
    21    17    14 ar
    22    19    13 ar
    23    16    15 2
    24    14    13 ar
    25    14    15 1
    26     2    24 1
    27     3    25 1
    28     8    26 1
    29     9    27 1
    30    10    28 1
    31    13    29 1
    32    15    30 1
    33    16    31 1
    34    18    32 1
    35    19    33 1
    36    20    34 1
@<TRIPOS>SUBSTRUCTURE
     1 GQW         1 TEMP              0 ****  ****    0 ROOT
