@<TRIPOS>MOLECULE
GQW
   34    36     1     0     0
SMALL
bcc


@<TRIPOS>ATOM
      1 C1           0.0000     0.0000     0.0000 ca         1 GQW      -0.125600
      2 C2           1.3970     0.0000     0.0000 ca         1 GQW      -0.104000
      3 C3           2.0860     0.0000     1.1940 ca         1 GQW      -0.083000
      4 C4           1.3990     0.0010     2.3950 ca         1 GQW      -0.060600
      5 C5           0.0080     0.0000     2.4050 ca         1 GQW      -0.083400
      6 C6          -1.9350    -0.4940     3.6860 c          1 GQW       0.580700
      7 C7          -2.7090    -0.3850     4.9360 ca         1 GQW      -0.122600
      8 N1          -0.6830     0.0010     3.6220 ns         1 GQW      -0.036100
      9 C8          -2.1460     0.2300     6.0500 ca         1 GQW      -0.070000
     10 N           -0.0680     0.0040    -2.4480 ns         1 GQW      -0.063400
     11 C           -0.7410    -0.0010    -1.2800 c          1 GQW       0.591700
     12 O           -1.9570    -0.0050    -1.2770 o          1 GQW      -0.604100
     13 C10         -4.1500    -0.1660     7.3040 ca         1 GQW      -0.027000
     14 C11         -4.7500    -0.7890     6.1900 ca         1 GQW      -0.092800
     15 C12         -6.0770    -1.3720     6.0660 cc         1 GQW      -0.103200
     16 C13         -6.3480    -1.8860     4.8830 cd         1 GQW      -0.017400
     17 C14         -4.0230    -0.8980     5.0020 ca         1 GQW       0.084900
     18 C15         -0.6940    -0.0050     1.2100 ca         1 GQW      -0.046000
     19 C9          -2.8720     0.3340     7.2240 ca         1 GQW      -0.120000
     20 O1          -0.7790     0.0030    -3.6730 oh         1 GQW      -0.436100
     21 O2          -2.4270    -1.0320     2.7130 o          1 GQW      -0.605100
     22 S           -4.9960    -1.7100     3.7830 ss         1 GQW      -0.147500
     23 Cl           2.2750     0.0010     3.8930 cl         1 GQW      -0.024400
     24 H1           1.9380    -0.0010    -0.9380 ha         1 GQW       0.101000
     25 H2           3.1700     0.0000     1.1920 ha         1 GQW       0.116000
     26 H3          -0.2540     0.3830     4.4410 hn         1 GQW       0.181500
     27 H4          -1.1400     0.6280     5.9990 ha         1 GQW       0.103000
     28 H5           0.9320     0.0450    -2.4490 hn         1 GQW       0.160500
     29 H6          -4.7030    -0.0760     8.2310 ha         1 GQW       0.105000
     30 H7          -6.7880    -1.3830     6.8840 ha         1 GQW       0.119000
     31 H8          -7.2880    -2.3580     4.6240 h4         1 GQW       0.147000
     32 H9          -1.7770    -0.0050     1.2160 ha         1 GQW       0.184000
     33 H10         -2.4290     0.8140     8.0880 ha         1 GQW       0.108000
     34 H11         -0.1800    -0.1560    -4.3840 ho         1 GQW       0.391000
@<TRIPOS>BOND
     1     1     2 ar  
     2     1    11 1   
     3     1    18 ar  
     4     2     3 ar  
     5     2    24 1   
     6     3     4 ar  
     7     3    25 1   
     8     4     5 ar  
     9     4    23 1   
    10     5     8 1   
    11     5    18 ar  
    12     6     7 1   
    13     6     8 1   
    14     6    21 2   
    15     7     9 ar  
    16     7    17 ar  
    17     8    26 1   
    18     9    19 ar  
    19     9    27 1   
    20    10    11 1   
    21    10    20 1   
    22    10    28 1   
    23    11    12 2   
    24    13    14 ar  
    25    13    19 ar  
    26    13    29 1   
    27    14    15 1   
    28    14    17 ar  
    29    15    16 2   
    30    15    30 1   
    31    16    22 1   
    32    16    31 1   
    33    17    22 1   
    34    18    32 1   
    35    19    33 1   
    36    20    34 1   
@<TRIPOS>SUBSTRUCTURE
     1 GQW         1 TEMP              0 ****  ****    0 ROOT
