@<TRIPOS>MOLECULE
molecule
   31    32     1     0     0
SMALL
bcc


@<TRIPOS>ATOM
      1 C10          0.0000     0.0000     0.0000 ca         1 GQZ      -0.147600
      2 C11          1.3930     0.0000     0.0000 ca         1 GQZ      -0.004000
      3 C12          2.0840     0.0000     1.2090 ca         1 GQZ      -0.154600
      4 C13          1.3770    -0.0000     2.4140 ca         1 GQZ      -0.084000
      5 C14         -0.0040    -0.0000     2.4080 ca         1 GQZ      -0.143000
      6 C15         -0.7420     0.0000    -1.2790 c          1 GQZ       0.686700
      7 O17         -2.8000    -0.0000    -2.5010 oh         1 GQZ      -0.356100
      8 C1           6.2660     0.7940     3.4140 ca         1 GQZ      -0.142000
      9 C2           5.6240     0.0960     2.3990 ca         1 GQZ       0.050600
     10 C3           6.3710    -0.5060     1.3940 ca         1 GQZ      -0.142000
     11 C4           7.7480    -0.4080     1.4070 ca         1 GQZ      -0.113000
     12 C5           8.3840     0.2880     2.4190 ca         1 GQZ      -0.142000
     13 C6           7.6440     0.8880     3.4210 ca         1 GQZ      -0.113000
     14 N7           4.2300    -0.0010     2.3890 ns         1 GQZ      -0.475100
     15 C8           3.5620    -0.0010     1.2180 c          1 GQZ       0.674700
     16 C9          -0.6950    -0.0050     1.2120 ca         1 GQZ      -0.088000
     17 N16         -2.0900    -0.0000    -1.2760 ns         1 GQZ      -0.472400
     18 O18          4.1760    -0.0020     0.1690 o          1 GQZ      -0.583100
     19 O19         -0.1360    -0.0010    -2.3320 o          1 GQZ      -0.562100
     20 H1           1.9360     0.0000    -0.9370 ha         1 GQZ       0.188000
     21 H2           1.9130     0.0020     3.3550 ha         1 GQZ       0.129000
     22 H3          -0.5480    -0.0020     3.3450 ha         1 GQZ       0.139000
     23 H4          -3.7210    -0.1090    -2.3300 ho         1 GQZ       0.399000
     24 H6           5.8740    -1.0510     0.6010 ha         1 GQZ       0.146500
     25 H7           8.3310    -0.8770     0.6240 ha         1 GQZ       0.133000
     26 H8           9.4650     0.3630     2.4260 ha         1 GQZ       0.130000
     27 H9           8.1450     1.4320     4.2130 ha         1 GQZ       0.133000
     28 H10          3.7300    -0.1110     3.2490 hn         1 GQZ       0.323500
     29 H11         -1.7780    -0.0050     1.2140 ha         1 GQZ       0.125000
     30 H12         -2.5880     0.0230    -0.4080 hn         1 GQZ       0.319500
     31 H5           5.6870     1.2640     4.1990 ha         1 GQZ       0.146500
@<TRIPOS>BOND
     1     5    16 ar
     2     5     4 ar
     3    16     1 ar
     4     4     3 ar
     5    17     7 1
     6    17     6 1
     7     1     6 1
     8     1     2 ar
     9     6    19 2
    10     3     2 ar
    11     3    15 1
    12    18    15 2
    13    15    14 1
    14    14     9 1
    15     9     8 ar
    16     9    10 ar
    17     8    13 ar
    18    10    11 ar
    19    13    12 ar
    20    11    12 ar
    21     2    20 1
    22     4    21 1
    23     5    22 1
    24     7    23 1
    25     8    31 1
    26    10    24 1
    27    11    25 1
    28    12    26 1
    29    13    27 1
    30    14    28 1
    31    16    29 1
    32    17    30 1
@<TRIPOS>SUBSTRUCTURE
     1 GQZ         1 TEMP              0 ****  ****    0 ROOT
