@<TRIPOS>MOLECULE
molecule
   58    57     1     0     0
SMALL
bcc


@<TRIPOS>ATOM
      1 C1           0.0000     0.0000     0.0000 c3         1 GR0       0.229600
      2 O1           1.4290     0.0000     0.0000 os         1 GR0      -0.518200
      3 C2          -0.5020     0.0000     1.4200 c2         1 GR0      -0.483200
      4 C3          -1.4590    -0.8210     1.7770 c2         1 GR0      -0.074400
      5 C4          -2.1420    -1.6770     0.7410 c3         1 GR0      -0.106900
      6 C5          -1.8770    -0.9080     3.2220 c3         1 GR0      -0.053200
      7 C6          -3.0760     0.0130     3.4630 c3         1 GR0      -0.104200
      8 C7          -3.4940    -0.0750     4.9080 c2         1 GR0      -0.534200
      9 C8          -3.4640     0.9950     5.6630 c2         1 GR0      -0.016400
     10 C9          -2.8750     2.2760     5.1340 c3         1 GR0      -0.070200
     11 PA           2.3070     0.0000    -1.3500 p5         1 GR0       1.155900
     12 C10         -4.0190     0.9430     7.0630 c3         1 GR0      -0.048900
     13 C11         -3.9830     3.1290     4.5120 c3         1 GR0      -0.081200
     14 C12         -3.3940     4.4110     3.9820 c2         1 GR0      -0.479200
     15 C13         -3.9190     5.5620     4.3210 c2         1 GR0       0.004600
     16 C14         -5.1770     5.6020     5.1510 c3         1 GR0      -0.120900
     17 C15         -3.2650     6.8470     3.8820 c3         1 GR0      -0.072200
     18 C16         -3.9250     7.3400     2.5920 c3         1 GR0      -0.088200
     19 C17         -3.2700     8.6240     2.1520 c2         1 GR0      -0.562200
     20 C18         -2.6150     8.6710     1.0190 c2         1 GR0       0.040600
     21 C19         -2.4650     7.4260     0.1830 c3         1 GR0      -0.095900
     22 O1A          1.9040    -1.1420    -2.2000 o          1 GR0      -0.890500
     23 C20         -2.0100     9.9690     0.5520 c3         1 GR0      -0.095900
     24 O2A          2.0610     1.3750    -2.1490 o          1 GR0      -0.890500
     25 O3A          3.8670    -0.1320    -0.9770 o          1 GR0      -0.890500
     26 H1          -0.3610    -0.8840    -0.5110 h1         1 GR0       0.005700
     27 H1A         -0.3610     0.8850    -0.5100 h1         1 GR0       0.005700
     28 H2          -1.0100     0.5430     0.6330 ha         1 GR0       0.354000
     29 H4          -2.4410    -1.0600    -0.0970 hc         1 GR0       0.036700
     30 H4A         -1.4580    -2.4440     0.3990 hc         1 GR0       0.036700
     31 H4B         -3.0170    -2.1420     1.1780 hc         1 GR0       0.036700
     32 H5          -2.1530    -1.9290     3.4560 hc         1 GR0       0.056200
     33 H5A         -1.0530    -0.6020     3.8550 hc         1 GR0       0.056200
     34 H6          -3.8990    -0.2940     2.8290 hc         1 GR0       0.065200
     35 H6A         -2.8000     1.0340     3.2280 hc         1 GR0       0.065200
     36 H7          -2.4520    -0.1300     4.6170 ha         1 GR0       0.379000
     37 H9          -2.4110     2.8230     5.9460 hc         1 GR0       0.075700
     38 H9A         -2.1300     2.0480     4.3810 hc         1 GR0       0.075700
     39 H10         -5.0610     1.2420     7.0500 hc         1 GR0       0.039367
     40 H10A        -3.4580     1.6170     7.6990 hc         1 GR0       0.039367
     41 H10B        -3.9390    -0.0670     7.4470 hc         1 GR0       0.039367
     42 H11         -4.7280     3.3580     5.2650 hc         1 GR0       0.032700
     43 H11A        -4.4470     2.5820     3.7000 hc         1 GR0       0.032700
     44 H12         -4.2610     3.9440     3.5300 ha         1 GR0       0.336000
     45 H14         -5.5680     6.6120     5.1640 hc         1 GR0       0.045033
     46 H14A        -5.9140     4.9350     4.7220 hc         1 GR0       0.045033
     47 H14B        -4.9520     5.2880     6.1630 hc         1 GR0       0.045033
     48 H15         -3.3830     7.5950     4.6560 hc         1 GR0       0.071200
     49 H15A        -2.2100     6.6730     3.7040 hc         1 GR0       0.071200
     50 H16         -4.9790     7.5140     2.7700 hc         1 GR0       0.059700
     51 H16A        -3.8080     6.5910     1.8180 hc         1 GR0       0.059700
     52 H17         -2.7280     7.8130     2.6230 ha         1 GR0       0.356000
     53 H19         -1.8810     7.6520    -0.7000 hc         1 GR0       0.054200
     54 H19A        -1.9640     6.6600     0.7620 hc         1 GR0       0.054200
     55 H19B        -3.4450     7.0700    -0.1130 hc         1 GR0       0.054200
     56 H20         -0.9400     9.8470     0.4340 hc         1 GR0       0.054200
     57 H20A        -2.4480    10.2510    -0.3970 hc         1 GR0       0.054200
     58 H20B        -2.2060    10.7430     1.2840 hc         1 GR0       0.054200
@<TRIPOS>BOND
     1     1     2 1
     2     1     3 1
     3     1    26 1
     4     1    27 1
     5     2    11 1
     6     3     4 2
     7     3    28 1
     8     4     5 1
     9     4     6 1
    10     5    29 1
    11     5    30 1
    12     5    31 1
    13     6     7 1
    14     6    32 1
    15     6    33 1
    16     7     8 1
    17     7    34 1
    18     7    35 1
    19     8     9 2
    20     8    36 1
    21     9    10 1
    22     9    12 1
    23    10    13 1
    24    10    37 1
    25    10    38 1
    26    11    22 1
    27    11    24 1
    28    11    25 1
    29    12    39 1
    30    12    40 1
    31    12    41 1
    32    13    14 1
    33    13    42 1
    34    13    43 1
    35    14    15 2
    36    14    44 1
    37    15    16 1
    38    15    17 1
    39    16    45 1
    40    16    46 1
    41    16    47 1
    42    17    18 1
    43    17    48 1
    44    17    49 1
    45    18    19 1
    46    18    50 1
    47    18    51 1
    48    19    20 2
    49    19    52 1
    50    20    21 1
    51    20    23 1
    52    21    53 1
    53    21    54 1
    54    21    55 1
    55    23    56 1
    56    23    57 1
    57    23    58 1
@<TRIPOS>SUBSTRUCTURE
     1 GR0         1 TEMP              0 ****  ****    0 ROOT
