@<TRIPOS>MOLECULE
GR0
   58    57     1     0     0
SMALL
bcc


@<TRIPOS>ATOM
      1 C1          0.0120    0.6540    0.1330 c3        1 GR0      0.225600
      2 O1          0.9010    1.6940    0.0770 os        1 GR0     -0.562200
      3 C2         -0.5600    0.4850    1.5100 c2        1 GR0     -0.073200
      4 C3         -1.2510   -0.5850    1.9430 c2        1 GR0     -0.277400
      5 C4         -1.5440   -1.7580    1.0890 c3        1 GR0     -0.018900
      6 C5         -1.7620   -0.6650    3.3390 c3        1 GR0     -0.000200
      7 C6         -3.2150   -0.2220    3.4360 c3        1 GR0     -0.060200
      8 C7         -3.7060   -0.2620    4.8340 c2        1 GR0     -0.146200
      9 C8         -3.6570    0.7560    5.7070 c2        1 GR0     -0.148400
     10 C9         -3.0670    2.0850    5.3790 c3        1 GR0     -0.043200
     11 PA          0.4400    3.0000   -0.9790 p5        1 GR0      1.322900
     12 C10        -4.1800    0.6200    7.0890 c3        1 GR0     -0.046900
     13 C11        -4.1230    3.0640    4.8910 c3        1 GR0     -0.038200
     14 C12        -3.5120    4.3250    4.4140 c2        1 GR0     -0.158200
     15 C13        -4.1150    5.5230    4.3740 c2        1 GR0     -0.142400
     16 C14        -5.5010    5.7790    4.8270 c3        1 GR0     -0.045900
     17 C15        -3.3870    6.7100    3.8290 c3        1 GR0     -0.034200
     18 C16        -3.2760    6.6460    2.3160 c3        1 GR0     -0.037200
     19 C17        -2.4210    7.7280    1.7780 c2        1 GR0     -0.249200
     20 C18        -1.8340    7.6580    0.5700 c2        1 GR0     -0.056400
     21 C19        -2.0020    6.5090   -0.3430 c3        1 GR0     -0.093900
     22 O1A        -0.2830    2.2550   -2.0700 o         1 GR0     -0.930833
     23 C20        -0.9290    8.7330    0.0910 c3        1 GR0     -0.093900
     24 O2A        -0.4540    3.8220   -0.0810 o         1 GR0     -0.930833
     25 O3A         1.7670    3.6080   -1.3270 o         1 GR0     -0.930833
     26 H1          0.5390   -0.3160   -0.1320 h1        1 GR0      0.019700
     27 H1A        -0.8370    0.8040   -0.6040 h1        1 GR0      0.019700
     28 H2         -0.3720    1.3430    2.1800 ha        1 GR0      0.129000
     29 H4         -0.8090   -2.5790    1.2860 hc        1 GR0      0.014367
     30 H4A        -1.4830   -1.4860    0.0050 hc        1 GR0      0.014367
     31 H4B        -2.5680   -2.1570    1.2970 hc        1 GR0      0.014367
     32 H5         -1.1420   -0.0150    4.0140 hc        1 GR0      0.018200
     33 H5A        -1.6740   -1.7180    3.7180 hc        1 GR0      0.018200
     34 H6         -3.3090    0.8130    3.0080 hc        1 GR0      0.054200
     35 H6A        -3.8480   -0.8970    2.8000 hc        1 GR0      0.054200
     36 H7         -4.1320   -1.2310    5.1490 ha        1 GR0      0.094000
     37 H9         -2.2740    1.9680    4.5890 hc        1 GR0      0.056700
     38 H9A        -2.5660    2.5070    6.2900 hc        1 GR0      0.056700
     39 H10        -4.6980   -0.3590    7.2420 hc        1 GR0      0.025367
     40 H10A       -4.9060    1.4430    7.3080 hc        1 GR0      0.025367
     41 H10B       -3.3410    0.6930    7.8250 hc        1 GR0      0.025367
     42 H11        -4.6900    2.5970    4.0380 hc        1 GR0      0.040200
     43 H11A       -4.8590    3.2540    5.7170 hc        1 GR0      0.040200
     44 H12        -2.4820    4.2260    4.0200 ha        1 GR0      0.155000
     45 H14        -6.0400    6.4070    4.0730 hc        1 GR0      0.026700
     46 H14A       -5.4920    6.3330    5.7990 hc        1 GR0      0.026700
     47 H14B       -6.0770    4.8320    4.9650 hc        1 GR0      0.026700
     48 H15        -3.9100    7.6550    4.1330 hc        1 GR0      0.029700
     49 H15A       -2.3530    6.7470    4.2680 hc        1 GR0      0.029700
     50 H16        -2.8480    5.6460    2.0140 hc        1 GR0      0.060700
     51 H16A       -4.3040    6.7120    1.8650 hc        1 GR0      0.060700
     52 H17        -2.2620    8.5950    2.4360 ha        1 GR0      0.086000
     53 H19        -1.7090    6.7740   -1.3870 hc        1 GR0      0.057867
     54 H19A       -1.3490    5.6260   -0.0230 hc        1 GR0      0.057867
     55 H19B       -3.0610    6.1520   -0.3460 hc        1 GR0      0.057867
     56 H20        -0.7970    9.5410    0.8510 hc        1 GR0      0.057867
     57 H20A        0.0730    8.2910   -0.1420 hc        1 GR0      0.057867
     58 H20B       -1.3350    9.1910   -0.8450 hc        1 GR0      0.057867
@<TRIPOS>BOND
     1    1    2 1   
     2    1    3 1   
     3    1   26 1   
     4    1   27 1   
     5    2   11 1   
     6    3    4 2   
     7    3   28 1   
     8    4    5 1   
     9    4    6 1   
    10    5   29 1   
    11    5   30 1   
    12    5   31 1   
    13    6    7 1   
    14    6   32 1   
    15    6   33 1   
    16    7    8 1   
    17    7   34 1   
    18    7   35 1   
    19    8    9 2   
    20    8   36 1   
    21    9   10 1   
    22    9   12 1   
    23   10   13 1   
    24   10   37 1   
    25   10   38 1   
    26   11   22 1   
    27   11   24 1   
    28   11   25 1   
    29   12   39 1   
    30   12   40 1   
    31   12   41 1   
    32   13   14 1   
    33   13   42 1   
    34   13   43 1   
    35   14   15 2   
    36   14   44 1   
    37   15   16 1   
    38   15   17 1   
    39   16   45 1   
    40   16   46 1   
    41   16   47 1   
    42   17   18 1   
    43   17   48 1   
    44   17   49 1   
    45   18   19 1   
    46   18   50 1   
    47   18   51 1   
    48   19   20 2   
    49   19   52 1   
    50   20   21 1   
    51   20   23 1   
    52   21   53 1   
    53   21   54 1   
    54   21   55 1   
    55   23   56 1   
    56   23   57 1   
    57   23   58 1   
@<TRIPOS>SUBSTRUCTURE
     1 GR0         1 TEMP              0 ****  ****    0 ROOT
