@<TRIPOS>MOLECULE
GR1
   69    71     1     0     0
SMALL
bcc


@<TRIPOS>ATOM
      1 N1           0.0000     0.0000     0.0000 n          1 GR1      -0.154800
      2 C7           1.4650     0.0000     0.0000 c3         1 GR1       0.039000
      3 O1          -0.0730     0.1220     2.2150 o          1 GR1      -0.639100
      4 C8          -4.1390    -1.1660     2.0580 cp         1 GR1       0.006000
      5 C9          -4.9090    -0.4180     1.1670 ca         1 GR1      -0.085000
      6 C17         -6.7940    -6.6680     4.3450 c3         1 GR1      -0.003400
      7 C18         -7.6300    -7.7230     3.6200 c3         1 GR1      -0.082400
      8 C19         -6.7030    -8.7260     2.9320 c3         1 GR1      -0.034400
      9 C20         -7.5380    -9.7810     2.2070 c3         1 GR1      -0.075700
     10 C21         -6.6240   -10.7700     1.5300 c2         1 GR1       0.115200
     11 N2          -5.3420   -10.6340     1.6250 n2         1 GR1      -0.500100
     12 N3          -7.1510   -11.8120     0.8140 nz         1 GR1       0.193400
     13 O2          -8.5500    -6.0880     7.1970 o          1 GR1      -0.882800
     14 O2A         -9.4180    -7.3630     5.6140 o          1 GR1      -0.882800
     15 O3          -7.2110    -3.0220     7.5910 oh         1 GR1      -0.581800
     16 C10         -6.8850    -4.6090     5.7580 c3         1 GR1       0.021600
     17 C11         -6.6010    -2.6160     4.5070 ca         1 GR1      -0.088300
     18 C12         -6.0290    -3.8480     4.7680 ca         1 GR1      -0.065300
     19 C13         -7.8010    -3.5470     6.4010 c3         1 GR1       0.187100
     20 C14         -7.8800    -2.4680     5.3010 c3         1 GR1      -0.003100
     21 C22         -4.8410    -4.2070     4.1490 ca         1 GR1      -0.099000
     22 C23         -4.2250    -3.3430     3.2710 ca         1 GR1      -0.105000
     23 C24         -4.7970    -2.1010     3.0030 cp         1 GR1      -0.065000
     24 C25         -5.9860    -1.7410     3.6310 ca         1 GR1      -0.074000
     25 C3          -4.2990     0.4550     0.2870 ca         1 GR1      -0.124000
     26 C4          -2.9260     0.5930     0.2840 ca         1 GR1      -0.130000
     27 C26         -0.6750     0.0000     1.1670 c          1 GR1       0.613700
     28 C5          -2.1440    -0.1500     1.1700 ca         1 GR1      -0.149600
     29 C6          -2.7550    -1.0350     2.0560 ca         1 GR1      -0.053000
     30 C27          1.9750     1.4430     0.0010 c3         1 GR1      -0.025100
     31 C1          -0.7310     0.0000    -1.2680 c3         1 GR1       0.039000
     32 C2          -0.8630     1.4360    -1.7800 c3         1 GR1      -0.025100
     33 C16         -7.7220    -5.6650     5.0320 c3         1 GR1      -0.146700
     34 C15         -8.5940    -6.3870     6.0270 c          1 GR1       0.981600
     35 H72          1.8260    -0.5100    -0.8850 h1         1 GR1       0.030700
     36 H71          1.8260    -0.5110     0.8840 h1         1 GR1       0.030700
     37 H9          -5.9620    -0.4620     0.9160 ha         1 GR1       0.111000
     38 H172        -6.1680    -6.1490     3.6290 hc         1 GR1       0.004200
     39 H171        -6.1700    -7.1500     5.0880 hc         1 GR1       0.004200
     40 H182        -8.2560    -8.2420     4.3360 hc         1 GR1       0.071200
     41 H181        -8.2550    -7.2410     2.8780 hc         1 GR1       0.071200
     42 H192        -6.0780    -9.2080     3.6740 hc         1 GR1       0.011200
     43 H191        -6.0770    -8.2070     2.2160 hc         1 GR1       0.011200
     44 H202        -8.1650   -10.3000     2.9220 hc         1 GR1       0.054200
     45 H201        -8.1620    -9.3000     1.4640 hc         1 GR1       0.054200
     46 H2N         -4.9550    -9.8730     2.1470 hn         1 GR1       0.399400
     47 H32         -6.4090   -12.3350     0.3920 hn         1 GR1       0.214133
     48 H31         -7.6720   -12.4080     1.4260 hn         1 GR1       0.214133
     49 H3          -7.8890    -2.8080     8.2100 ho         1 GR1       0.387000
     50 H10         -6.2610    -5.0710     6.5140 hc         1 GR1       0.059700
     51 H13         -8.7820    -3.9600     6.6010 h1         1 GR1       0.059700
     52 H142        -8.7310    -2.6650     4.6600 hc         1 GR1       0.025700
     53 H141        -7.9130    -1.4860     5.7580 hc         1 GR1       0.025700
     54 H22         -4.3960    -5.1720     4.3570 ha         1 GR1       0.100000
     55 H23         -3.3390    -3.6590     2.7320 ha         1 GR1       0.098000
     56 H25         -6.4250    -0.7690     3.4410 ha         1 GR1       0.103000
     57 H3C1        -4.9020     1.0350    -0.4020 ha         1 GR1       0.102000
     58 H4          -2.4580     1.3160    -0.3740 ha         1 GR1       0.127000
     59 H6          -2.1140    -1.4450     2.8270 ha         1 GR1       0.132000
     60 H273         1.2730     2.0730     0.5340 hc         1 GR1       0.011700
     61 H272         2.9410     1.4840     0.4910 hc         1 GR1       0.011700
     62 H271         2.0720     1.7920    -1.0190 hc         1 GR1       0.011700
     63 H12         -1.7170    -0.4210    -1.1170 h1         1 GR1       0.030700
     64 H11         -0.1920    -0.5940    -1.9960 h1         1 GR1       0.030700
     65 H23A        -0.0470     1.6540    -2.4590 hc         1 GR1       0.011700
     66 H22A        -1.8060     1.5480    -2.3010 hc         1 GR1       0.011700
     67 H21         -0.8290     2.1230    -0.9430 hc         1 GR1       0.011700
     68 H16         -8.3450    -5.1830     4.2890 hc         1 GR1       0.029700
     69 H33         -7.7560   -11.4550     0.1010 hn         1 GR1       0.214133
@<TRIPOS>BOND
     1     1     2 1   
     2     1    27 1   
     3     1    31 1   
     4     2    30 1   
     5     2    35 1   
     6     2    36 1   
     7     3    27 2   
     8     4     5 ar  
     9     4    23 1   
    10     4    29 ar  
    11     5    25 ar  
    12     5    37 1   
    13     6     7 1   
    14     6    33 1   
    15     6    38 1   
    16     6    39 1   
    17     7     8 1   
    18     7    40 1   
    19     7    41 1   
    20     8     9 1   
    21     8    42 1   
    22     8    43 1   
    23     9    10 1   
    24     9    44 1   
    25     9    45 1   
    26    10    11 2   
    27    10    12 1   
    28    11    46 1   
    29    12    47 1   
    30    12    48 1   
    31    12    69 1   
    32    13    34 1   
    33    14    34 1   
    34    15    19 1   
    35    15    49 1   
    36    16    18 1   
    37    16    19 1   
    38    16    33 1   
    39    16    50 1   
    40    17    18 ar  
    41    17    20 1   
    42    17    24 ar  
    43    18    21 ar  
    44    19    20 1   
    45    19    51 1   
    46    20    52 1   
    47    20    53 1   
    48    21    22 ar  
    49    21    54 1   
    50    22    23 ar  
    51    22    55 1   
    52    23    24 ar  
    53    24    56 1   
    54    25    26 ar  
    55    25    57 1   
    56    26    28 ar  
    57    26    58 1   
    58    27    28 1   
    59    28    29 ar  
    60    29    59 1   
    61    30    60 1   
    62    30    61 1   
    63    30    62 1   
    64    31    32 1   
    65    31    63 1   
    66    31    64 1   
    67    32    65 1   
    68    32    66 1   
    69    32    67 1   
    70    33    34 1   
    71    33    68 1   
@<TRIPOS>SUBSTRUCTURE
     1 GR1         1 TEMP              0 ****  ****    0 ROOT
