@<TRIPOS>MOLECULE
molecule
   69    71     1     0     0
SMALL
bcc


@<TRIPOS>ATOM
      1 N1           0.0000     0.0000     0.0000 n          1 GR1      -0.490800
      2 C7           1.4650     0.0000     0.0000 c3         1 GR1       0.100500
      3 O1          -0.0730     0.1220     2.2150 o          1 GR1      -0.600100
      4 C8          -4.1390    -1.1660     2.0580 cp         1 GR1      -0.004000
      5 C9          -4.9090    -0.4180     1.1670 ca         1 GR1      -0.107000
      6 C17         -6.7940    -6.6680     4.3450 c3         1 GR1      -0.049400
      7 C18         -7.6300    -7.7230     3.6200 c3         1 GR1      -0.101400
      8 C19         -6.7030    -8.7260     2.9320 c3         1 GR1      -0.069400
      9 C20         -7.5380    -9.7810     2.2070 c3         1 GR1      -0.116700
     10 C21         -6.6240   -10.7700     1.5300 c2         1 GR1       0.464200
     11 N2          -5.3420   -10.6340     1.6250 n2         1 GR1      -0.660100
     12 N3          -7.1510   -11.8120     0.8140 nz         1 GR1      -0.805600
     13 O2          -8.5500    -6.0880     7.1970 o          1 GR1      -0.840800
     14 O2A         -9.4180    -7.3630     5.6140 o          1 GR1      -0.840800
     15 O3          -7.2110    -3.0220     7.5910 oh         1 GR1      -0.600800
     16 C10         -6.8850    -4.6090     5.7580 c3         1 GR1      -0.005400
     17 C11         -6.6010    -2.6160     4.5070 ca         1 GR1      -0.085300
     18 C12         -6.0290    -3.8480     4.7680 ca         1 GR1      -0.058300
     19 C13         -7.8010    -3.5470     6.4010 c3         1 GR1       0.160100
     20 C14         -7.8800    -2.4680     5.3010 c3         1 GR1      -0.069100
     21 C22         -4.8410    -4.2070     4.1490 ca         1 GR1      -0.125000
     22 C23         -4.2250    -3.3430     3.2710 ca         1 GR1      -0.125000
     23 C24         -4.7970    -2.1010     3.0030 cp         1 GR1      -0.066000
     24 C25         -5.9860    -1.7410     3.6310 ca         1 GR1      -0.101000
     25 C3          -4.2990     0.4550     0.2870 ca         1 GR1      -0.154000
     26 C4          -2.9260     0.5930     0.2840 ca         1 GR1      -0.133000
     27 C26         -0.6750     0.0000     1.1670 c          1 GR1       0.676700
     28 C5          -2.1440    -0.1500     1.1700 ca         1 GR1      -0.144600
     29 C6          -2.7550    -1.0350     2.0560 ca         1 GR1      -0.078000
     30 C27          1.9750     1.4430     0.0010 c3         1 GR1      -0.116600
     31 C1          -0.7310     0.0000    -1.2680 c3         1 GR1       0.100500
     32 C2          -0.8630     1.4360    -1.7800 c3         1 GR1      -0.116600
     33 C16         -7.7220    -5.6650     5.0320 c3         1 GR1      -0.163700
     34 C15         -8.5940    -6.3870     6.0270 c          1 GR1       0.892600
     35 H72          1.8260    -0.5110     0.8840 h1         1 GR1       0.055700
     36 H71          1.8260    -0.5100    -0.8850 h1         1 GR1       0.055700
     37 H9          -5.9600    -0.4490     0.9090 ha         1 GR1       0.138000
     38 H172        -6.1680    -6.1490     3.6290 hc         1 GR1       0.029200
     39 H171        -6.1700    -7.1500     5.0880 hc         1 GR1       0.029200
     40 H182        -8.2560    -8.2420     4.3360 hc         1 GR1       0.084700
     41 H181        -8.2550    -7.2410     2.8780 hc         1 GR1       0.084700
     42 H192        -6.0780    -9.2080     3.6740 hc         1 GR1       0.052200
     43 H191        -6.0770    -8.2070     2.2160 hc         1 GR1       0.052200
     44 H202        -8.1620    -9.3000     1.4640 hc         1 GR1       0.084700
     45 H201        -8.1650   -10.3000     2.9220 hc         1 GR1       0.084700
     46 H2N         -4.7340   -11.2900     1.1760 hn         1 GR1       0.416400
     47 H32         -6.4390   -12.2130     0.2360 hn         1 GR1       0.457133
     48 H31         -7.5000   -12.5070     1.4440 hn         1 GR1       0.457133
     49 H3          -7.8890    -2.8080     8.2100 ho         1 GR1       0.399000
     50 H10         -6.2610    -5.0710     6.5140 hc         1 GR1       0.088700
     51 H13         -8.7820    -3.9600     6.6010 h1         1 GR1       0.087700
     52 H142        -7.9130    -1.4860     5.7580 hc         1 GR1       0.055200
     53 H141        -8.7310    -2.6650     4.6600 hc         1 GR1       0.055200
     54 H22         -4.3960    -5.1720     4.3570 ha         1 GR1       0.126000
     55 H23         -3.2630    -3.6000     2.8430 ha         1 GR1       0.123000
     56 H25         -6.4260    -0.7700     3.4400 ha         1 GR1       0.126000
     57 H3C1        -4.9020     1.0360    -0.4010 ha         1 GR1       0.127000
     58 H4          -2.4570     1.3140    -0.3750 ha         1 GR1       0.139000
     59 H6          -2.1190    -1.4360     2.8360 ha         1 GR1       0.159000
     60 H273         2.9390     1.4840     0.4940 hc         1 GR1       0.041867
     61 H272         2.0760     1.7910    -1.0190 hc         1 GR1       0.041867
     62 H271         1.2710     2.0740     0.5300 hc         1 GR1       0.041867
     63 H12         -0.1920    -0.5940    -1.9960 h1         1 GR1       0.055700
     64 H11         -1.7170    -0.4210    -1.1170 h1         1 GR1       0.055700
     65 H23A        -0.0370     1.6600    -2.4460 hc         1 GR1       0.041867
     66 H22A        -1.7980     1.5440    -2.3170 hc         1 GR1       0.041867
     67 H21         -0.8470     2.1220    -0.9420 hc         1 GR1       0.041867
     68 H16         -8.3450    -5.1830     4.2890 hc         1 GR1       0.047700
     69 H33         -7.8990   -11.4780     0.2390 hn         1 GR1       0.457133
@<TRIPOS>BOND
     1     1     2 1
     2     1    27 1
     3     1    31 1
     4     2    30 1
     5     2    35 1
     6     2    36 1
     7     3    27 2
     8     4     5 ar
     9     4    23 1
    10     4    29 ar
    11     5    25 ar
    12     5    37 1
    13     6     7 1
    14     6    33 1
    15     6    38 1
    16     6    39 1
    17     7     8 1
    18     7    40 1
    19     7    41 1
    20     8     9 1
    21     8    42 1
    22     8    43 1
    23     9    10 1
    24     9    44 1
    25     9    45 1
    26    10    11 2
    27    10    12 1
    28    11    46 1
    29    12    47 1
    30    12    48 1
    31    13    34 1
    32    14    34 1
    33    15    19 1
    34    15    49 1
    35    16    18 1
    36    16    19 1
    37    16    33 1
    38    16    50 1
    39    17    18 ar
    40    17    20 1
    41    17    24 ar
    42    18    21 ar
    43    19    20 1
    44    19    51 1
    45    20    52 1
    46    20    53 1
    47    21    22 ar
    48    21    54 1
    49    22    23 ar
    50    22    55 1
    51    23    24 ar
    52    24    56 1
    53    25    26 ar
    54    25    57 1
    55    26    28 ar
    56    26    58 1
    57    27    28 1
    58    28    29 ar
    59    29    59 1
    60    30    60 1
    61    30    61 1
    62    30    62 1
    63    31    32 1
    64    31    63 1
    65    31    64 1
    66    32    65 1
    67    32    66 1
    68    32    67 1
    69    33    34 1
    70    33    68 1
    71    69    12 1
@<TRIPOS>SUBSTRUCTURE
     1 GR1         1 TEMP              0 ****  ****    0 ROOT
