@<TRIPOS>MOLECULE
GR2
   36    39     1     0     0
SMALL
bcc


@<TRIPOS>ATOM
      1 C1         -0.1490   -0.3280   -0.0460 ca        1 GR2     -0.076300
      2 C2          1.2090   -0.1220   -0.2330 ca        1 GR2     -0.124000
      3 C3          1.9620    0.4070    0.8230 ca        1 GR2     -0.118000
      4 C4          1.3610    0.7240    2.0390 ca        1 GR2     -0.136000
      5 C5         -0.0110    0.5150    2.2330 ca        1 GR2     -0.084000
      6 C6         -0.7550   -0.0130    1.1920 ca        1 GR2     -0.114300
      7 C7         -2.2140   -0.3480    1.1680 c3        1 GR2      0.183400
      8 C8         -2.4930   -0.8530   -0.2930 c3        1 GR2     -0.033500
      9 C9         -1.1400   -0.8690   -1.0220 c3        1 GR2     -0.025100
     10 C10        -3.7470    1.1230    0.2450 c         1 GR2      0.736800
     11 C11        -3.4700    0.1420   -0.8220 ce        1 GR2     -0.262400
     12 C12        -4.0610    0.1970   -2.0280 c2        1 GR2      0.121100
     13 C13        -4.3710   -0.5840   -4.2290 c3        1 GR2      0.341100
     14 C14        -3.9750   -1.7410   -5.1340 c2        1 GR2     -0.154200
     15 C15        -5.0640   -2.5040   -5.3690 ce        1 GR2     -0.135400
     16 C16        -6.2180   -1.9070   -4.6270 c         1 GR2      0.711800
     17 C17        -5.2150   -3.7110   -6.1820 c3        1 GR2     -0.051900
     18 O1         -4.4690    2.1120    0.2990 o         1 GR2     -0.574500
     19 O2         -3.0370    0.8180    1.3940 os        1 GR2     -0.397900
     20 O3         -3.7410   -0.7620   -2.9690 os        1 GR2     -0.328900
     21 O4         -7.3960   -2.1920   -4.4980 o         1 GR2     -0.526500
     22 O5         -5.7790   -0.7510   -3.9700 os        1 GR2     -0.442900
     23 H1          1.6890   -0.3650   -1.1900 ha        1 GR2      0.134000
     24 H2          3.0400    0.5770    0.6860 ha        1 GR2      0.132000
     25 H3          1.9650    1.1450    2.8560 ha        1 GR2      0.135000
     26 H4         -0.4880    0.7750    3.1890 ha        1 GR2      0.145000
     27 H5         -2.5030   -1.0870    1.9570 h1        1 GR2      0.086700
     28 H6         -2.9420   -1.8770   -0.2810 hc        1 GR2      0.081700
     29 H7         -1.1790   -0.2460   -1.9510 hc        1 GR2      0.062200
     30 H8         -0.8720   -1.9140   -1.3220 hc        1 GR2      0.062200
     31 H9         -4.8090    0.9580   -2.3100 h4        1 GR2      0.174000
     32 H10        -4.2060    0.4390   -4.6510 h2        1 GR2      0.103700
     33 H12        -4.2480   -3.9950   -6.6650 hc        1 GR2      0.065033
     34 H13        -5.9830   -3.5460   -6.9800 hc        1 GR2      0.065033
     35 H14        -5.5620   -4.5630   -5.5410 hc        1 GR2      0.065033
     36 H11        -2.9500   -1.8620   -5.4800 ha        1 GR2      0.178000
@<TRIPOS>BOND
     1    1    2 ar  
     2    1    6 ar  
     3    1    9 1   
     4    2    3 ar  
     5    2   23 1   
     6    3    4 ar  
     7    3   24 1   
     8    4    5 ar  
     9    4   25 1   
    10    5    6 ar  
    11    5   26 1   
    12    6    7 1   
    13    7    8 1   
    14    7   19 1   
    15    7   27 1   
    16    8    9 1   
    17    8   11 1   
    18    8   28 1   
    19    9   29 1   
    20    9   30 1   
    21   10   11 1   
    22   10   18 2   
    23   10   19 1   
    24   11   12 2   
    25   12   20 1   
    26   12   31 1   
    27   13   14 1   
    28   13   20 1   
    29   13   22 1   
    30   13   32 1   
    31   14   15 2   
    32   14   36 1   
    33   15   16 1   
    34   15   17 1   
    35   16   21 2   
    36   16   22 1   
    37   17   33 1   
    38   17   34 1   
    39   17   35 1   
@<TRIPOS>SUBSTRUCTURE
     1 GR2         1 TEMP              0 ****  ****    0 ROOT
