@<TRIPOS>MOLECULE
molecule
   36    39     1     0     0
SMALL
bcc


@<TRIPOS>ATOM
      1 C1           0.0000     0.0000     0.0000 ca         1 GR2      -0.072300
      2 C2           1.3850     0.0000     0.0000 ca         1 GR2      -0.120000
      3 C3           2.0810     0.0000     1.1920 ca         1 GR2      -0.113000
      4 C4           1.3930     0.0010     2.3920 ca         1 GR2      -0.134000
      5 C5           0.0120     0.0020     2.3950 ca         1 GR2      -0.087000
      6 C6          -0.6880    -0.0040     1.1980 ca         1 GR2      -0.108300
      7 C7          -2.1780    -0.0080     0.9380 c3         1 GR2       0.193400
      8 C8          -2.3230    -0.4530    -0.5470 c3         1 GR2      -0.047500
      9 C9          -0.9800     0.0000    -1.1530 c3         1 GR2      -0.026100
     10 C10         -3.5570     1.4900    -0.0730 c          1 GR2       0.757800
     11 C11         -3.4260     0.4650    -1.0440 ce         1 GR2      -0.316400
     12 C12         -4.1340     0.3340    -2.1800 c2         1 GR2       0.137100
     13 C13         -4.6950    -0.7800    -4.2170 c3         1 GR2       0.350100
     14 C14         -4.2150    -1.9180    -5.0870 c2         1 GR2      -0.161200
     15 C15         -5.2350    -2.7630    -5.2160 ce         1 GR2      -0.170400
     16 C16         -6.3900    -2.2540    -4.4720 c          1 GR2       0.720800
     17 C17         -5.2060    -4.0470    -6.0050 c3         1 GR2      -0.032900
     18 O1          -4.3770     2.3870    -0.1310 o          1 GR2      -0.587500
     19 O2          -2.6620     1.3450     0.9200 os         1 GR2      -0.380900
     20 O3          -3.8920    -0.7000    -3.0100 os         1 GR2      -0.306900
     21 O4          -7.4710    -2.8050    -4.4000 o          1 GR2      -0.537500
     22 O5          -6.0770    -1.0860    -3.8810 os         1 GR2      -0.398900
     23 H1           1.9250    -0.0010    -0.9390 ha         1 GR2       0.130000
     24 H2           3.1640    -0.0010     1.1880 ha         1 GR2       0.133000
     25 H3           1.9380     0.0010     3.3290 ha         1 GR2       0.134000
     26 H4          -0.5260     0.0030     3.3350 ha         1 GR2       0.134000
     27 H5          -2.7260    -0.6450     1.6220 h1         1 GR2       0.079700
     28 H6          -2.5330    -1.5090    -0.6680 hc         1 GR2       0.091700
     29 H7          -1.0730     0.9980    -1.5640 hc         1 GR2       0.062700
     30 H8          -0.6600    -0.6990    -1.9160 hc         1 GR2       0.062700
     31 H9          -4.8870     1.0690    -2.4370 h4         1 GR2       0.162000
     32 H10         -4.6450     0.1530    -4.7660 h2         1 GR2       0.091700
     33 H12         -5.4760    -4.8740    -5.3600 hc         1 GR2       0.060700
     34 H13         -4.2090    -4.2070    -6.3980 hc         1 GR2       0.060700
     35 H14         -5.9110    -3.9830    -6.8250 hc         1 GR2       0.060700
     36 H11         -3.5670    -1.7180    -5.9320 ha         1 GR2       0.176000
@<TRIPOS>BOND
     1     3     2 ar
     2     3     4 ar
     3     2     1 ar
     4     4     5 ar
     5     1     9 1
     6     1     6 ar
     7     9     8 1
     8     5     6 ar
     9     6     7 1
    10     8     7 1
    11     8    11 1
    12     7    19 1
    13    20    13 1
    14    20    12 1
    15    22    13 1
    16    22    16 1
    17    13    14 1
    18    11    12 2
    19    11    10 1
    20    19    10 1
    21    16    21 2
    22    16    15 1
    23    14    15 2
    24    10    18 2
    25    15    17 1
    26     2    23 1
    27     3    24 1
    28     4    25 1
    29     5    26 1
    30     7    27 1
    31     8    28 1
    32     9    29 1
    33     9    30 1
    34    12    31 1
    35    13    32 1
    36    14    36 1
    37    17    33 1
    38    17    34 1
    39    17    35 1
@<TRIPOS>SUBSTRUCTURE
     1 GR2         1 TEMP              0 ****  ****    0 ROOT
