@<TRIPOS>MOLECULE
GR6
   88    91     1     0     0
SMALL
bcc


@<TRIPOS>ATOM
      1 C1          0.6300    1.9020    1.1720 ca        1 GR6      0.316100
      2 C2          1.9600    1.4450    1.2480 ca        1 GR6     -0.296000
      3 C3          2.3090    0.5070    2.2140 ca        1 GR6      0.349100
      4 C4          1.3640    0.0110    3.1840 ca        1 GR6     -0.706500
      5 C5          0.0100    0.4630    3.0050 ca        1 GR6      0.045000
      6 C6         -0.3560    1.3720    2.0580 ca        1 GR6     -0.237000
      7 S7          1.7030   -0.8630    4.4010 s4        1 GR6      1.707300
      8 O8          2.9580   -0.9190    4.9030 o         1 GR6     -0.451900
      9 O9          0.6460   -1.3400    5.1260 o         1 GR6     -0.451900
     10 N10         1.9600   -3.0420    3.2850 n3        1 GR6     -0.908200
     11 C11         2.8370   -3.9030    4.0960 c3        1 GR6      0.120800
     12 C12         4.2370   -4.1270    3.5270 c3        1 GR6     -0.101400
     13 C13         5.1520   -2.9570    3.8150 c3        1 GR6     -0.082400
     14 C14         6.4340   -3.0290    3.0090 c3        1 GR6     -0.059200
     15 C15         0.7700   -3.7330    2.7910 c3        1 GR6      0.114800
     16 C16        -0.1990   -4.2370    3.8840 c3        1 GR6      0.123100
     17 O17        -1.2300   -3.2930    4.1160 oh        1 GR6     -0.628800
     18 C18        -0.9110   -5.5290    3.3940 c3        1 GR6      0.139500
     19 N19        -1.9010   -6.0020    4.4340 n4        1 GR6     -0.642800
     20 C20        -1.2540   -6.6800    5.5970 c         1 GR6      0.623100
     21 O21        -0.0430   -6.8240    5.6980 o         1 GR6     -0.444000
     22 O22        -2.1900   -7.0980    6.4660 os        1 GR6     -0.394900
     23 C23        -1.7060   -7.6300    7.7490 c3        1 GR6      0.137100
     24 C24        -1.0420   -6.5130    8.5660 c3        1 GR6      0.102400
     25 O25        -2.0110   -5.9860    9.4670 os        1 GR6     -0.400600
     26 C26        -3.0840   -6.9150    9.6300 c3        1 GR6      0.322900
     27 O27        -4.2430   -6.1550    9.3470 os        1 GR6     -0.395600
     28 C28        -4.9280   -6.6860    8.2040 c3        1 GR6      0.126400
     29 C29        -4.2840   -8.0230    7.8340 c3        1 GR6     -0.101400
     30 C30        -2.9450   -8.0350    8.5590 c3        1 GR6     -0.119700
     31 C31        -1.6380   -5.3060    2.0580 c3        1 GR6     -0.051100
     32 C32        -3.8280   -6.5000    1.8510 ca        1 GR6     -0.133500
     33 C33        -4.5870   -7.5910    1.4320 ca        1 GR6     -0.111000
     34 C34        -3.9690   -8.6800    0.8140 ca        1 GR6     -0.090000
     35 C35        -2.5870   -8.6730    0.6120 ca        1 GR6     -0.111000
     36 C36        -1.8250   -7.5820    1.0280 ca        1 GR6     -0.133500
     37 C37        -2.4400   -6.4910    1.6530 ca        1 GR6     -0.175300
     38 O38         0.3880    2.8270    0.2230 os        1 GR6     -0.270900
     39 C39        -0.9460    3.3510    0.1050 c3        1 GR6      0.098700
     40 O40         3.5460   -0.0400    2.3210 os        1 GR6     -0.343900
     41 C41         4.5890    0.4940    1.4560 c3        1 GR6      0.140400
     42 C42         5.8540   -0.2760    1.7880 c3        1 GR6     -0.063200
     43 C43         5.9520   -1.5500    1.0380 c2        1 GR6     -0.193200
     44 C44         6.2160   -2.7470    1.5680 c2        1 GR6     -0.146200
     45 H2          2.6980    1.8510    0.5370 ha        1 GR6      0.198000
     46 H5         -0.7590    0.0580    3.6930 ha        1 GR6      0.168000
     47 H6         -1.4040    1.7060    1.9740 ha        1 GR6      0.182000
     48 H11         2.9290   -3.4080    5.1060 h1        1 GR6      0.067200
     49 H11A        2.3610   -4.9130    4.2520 h1        1 GR6      0.067200
     50 H12         4.6570   -5.0530    4.0060 hc        1 GR6      0.067200
     51 H12A        4.1930   -4.3210    2.4230 hc        1 GR6      0.067200
     52 H13         4.6230   -1.9920    3.5880 hc        1 GR6      0.052700
     53 H13A        5.4040   -2.9430    4.9090 hc        1 GR6      0.052700
     54 H14         7.1680   -2.2890    3.4330 hc        1 GR6      0.067200
     55 H14A        6.8940   -4.0470    3.1290 hc        1 GR6      0.067200
     56 H15         1.0780   -4.6180    2.1590 h1        1 GR6      0.077200
     57 H15A        0.1990   -3.0160    2.1320 h1        1 GR6      0.077200
     58 H16         0.3530   -4.4660    4.8410 h1        1 GR6      0.081700
     59 HO17       -0.9230   -2.6620    4.7850 ho        1 GR6      0.461000
     60 H18        -0.1360   -6.3460    3.2800 hx        1 GR6      0.124700
     61 HN19       -2.5680   -6.6590    3.9890 hn        1 GR6      0.491300
     62 H23        -1.0180   -8.4820    7.5140 h1        1 GR6      0.106700
     63 H24        -0.1860   -6.9260    9.1640 h1        1 GR6      0.072700
     64 H24A       -0.6900   -5.6610    7.9320 h1        1 GR6      0.072700
     65 H26        -3.1170   -7.2390   10.7010 h2        1 GR6      0.124700
     66 H28        -4.8330   -5.9390    7.3760 h1        1 GR6      0.057700
     67 H28A       -6.0020   -6.7900    8.5050 h1        1 GR6      0.057700
     68 H29        -4.9170   -8.8730    8.2000 hc        1 GR6      0.071700
     69 H29A       -4.1770   -8.1350    6.7300 hc        1 GR6      0.071700
     70 H30        -2.7460   -9.0310    9.0300 hc        1 GR6      0.113700
     71 H31        -2.2850   -4.3900    2.1330 hc        1 GR6      0.092700
     72 H31A       -0.8520   -5.0990    1.2800 hc        1 GR6      0.092700
     73 H34        -4.5720   -9.5370    0.4730 ha        1 GR6      0.166000
     74 H35        -2.0990   -9.5250    0.1110 ha        1 GR6      0.162000
     75 H36        -0.7390   -7.5740    0.8460 ha        1 GR6      0.135500
     76 H39        -0.8370    4.0970   -0.7260 h1        1 GR6      0.080367
     77 H39A       -1.2490    3.8500    1.0560 h1        1 GR6      0.080367
     78 H39B       -1.6540    2.5360   -0.1770 h1        1 GR6      0.080367
     79 H41         4.2760    0.3450    0.3900 h1        1 GR6      0.070700
     80 H41A        4.7030    1.5850    1.6910 h1        1 GR6      0.070700
     81 H42         5.9140   -0.4410    2.8980 hc        1 GR6      0.088700
     82 H42A        6.7250    0.3790    1.5000 hc        1 GR6      0.088700
     83 H43         5.8330   -1.4490   -0.0560 ha        1 GR6      0.130000
     84 H44         6.3120   -3.6240    0.9030 ha        1 GR6      0.133000
     85 H32        -4.3290   -5.6270    2.2960 ha        1 GR6      0.135500
     86 H101        2.4790   -2.7260    2.4740 hn        1 GR6      0.399800
     87 H192       -2.4320   -5.1860    4.7800 hn        1 GR6      0.491300
     88 H33        -5.6800   -7.5880    1.5750 ha        1 GR6      0.162000
@<TRIPOS>BOND
     1    1    2 ar  
     2    1    6 ar  
     3    1   38 1   
     4    2    3 ar  
     5    2   45 1   
     6    3    4 ar  
     7    3   40 1   
     8    4    5 ar  
     9    4    7 1   
    10    5    6 ar  
    11    5   46 1   
    12    6   47 1   
    13    7    8 1   
    14    7    9 1   
    15   10   11 1   
    16   10   15 1   
    17   10   86 1   
    18   11   12 1   
    19   11   48 1   
    20   11   49 1   
    21   12   13 1   
    22   12   50 1   
    23   12   51 1   
    24   13   14 1   
    25   13   52 1   
    26   13   53 1   
    27   14   44 1   
    28   14   54 1   
    29   14   55 1   
    30   15   16 1   
    31   15   56 1   
    32   15   57 1   
    33   16   17 1   
    34   16   18 1   
    35   16   58 1   
    36   17   59 1   
    37   18   19 1   
    38   18   31 1   
    39   18   60 1   
    40   19   20 1   
    41   19   61 1   
    42   19   87 1   
    43   20   21 2   
    44   20   22 1   
    45   22   23 1   
    46   23   24 1   
    47   23   30 1   
    48   23   62 1   
    49   24   25 1   
    50   24   63 1   
    51   24   64 1   
    52   25   26 1   
    53   26   27 1   
    54   26   30 1   
    55   26   65 1   
    56   27   28 1   
    57   28   29 1   
    58   28   66 1   
    59   28   67 1   
    60   29   30 1   
    61   29   68 1   
    62   29   69 1   
    63   30   70 1   
    64   31   37 1   
    65   31   71 1   
    66   31   72 1   
    67   32   33 ar  
    68   32   37 ar  
    69   32   85 1   
    70   33   34 ar  
    71   33   88 1   
    72   34   35 ar  
    73   34   73 1   
    74   35   36 ar  
    75   35   74 1   
    76   36   37 ar  
    77   36   75 1   
    78   38   39 1   
    79   39   76 1   
    80   39   77 1   
    81   39   78 1   
    82   40   41 1   
    83   41   42 1   
    84   41   79 1   
    85   41   80 1   
    86   42   43 1   
    87   42   81 1   
    88   42   82 1   
    89   43   44 2   
    90   43   83 1   
    91   44   84 1   
@<TRIPOS>SUBSTRUCTURE
     1 GR6         1 TEMP              0 ****  ****    0 ROOT
