@<TRIPOS>MOLECULE
molecule
   55    58     1     0     0
SMALL
bcc


@<TRIPOS>ATOM
      1 C1           0.0000     0.0000     0.0000 c3         1 GR9       0.144800
      2 N2           1.4690     0.0000     0.0000 n3         1 GR9      -0.727600
      3 C3           1.9960     1.1340    -0.7710 c3         1 GR9       0.153100
      4 C4           2.0020     0.0000     1.3690 c3         1 GR9       0.144800
      5 C5           1.5770    -1.2890     2.0790 c3         1 GR9       0.241800
      6 N6           0.1140    -1.4170     1.9810 n3         1 GR9      -0.820500
      7 S7          -0.8070    -1.6940     3.3290 sy         1 GR9       1.425200
      8 O8          -2.0100    -2.2980     2.8750 o          1 GR9      -0.634300
      9 O9           0.0530    -2.2970     4.2850 o          1 GR9      -0.634300
     10 C10         -1.2570    -0.1220     3.9860 ca         1 GR9      -0.315500
     11 C11         -2.4230     0.4930     3.5660 ca         1 GR9      -0.028000
     12 C12         -2.7800     1.7230     4.0770 ca         1 GR9      -0.138000
     13 C13         -1.9640     2.3480     5.0180 cp         1 GR9      -0.073500
     14 C14         -0.7910     1.7240     5.4390 ca         1 GR9      -0.138000
     15 C15         -0.4450     0.4910     4.9240 ca         1 GR9      -0.028000
     16 C16         -2.3420     3.6710     5.5710 cp         1 GR9       0.260500
     17 C17         -3.5700     4.2460     5.2270 ca         1 GR9       0.403900
     18 N18         -3.9120     5.4220     5.7160 nb         1 GR9      -0.737000
     19 C19         -3.0910     6.0670     6.5380 ca         1 GR9       0.647900
     20 C20         -1.8560     5.4920     6.8860 ca         1 GR9       0.156500
     21 N21         -1.5190     4.3040     6.3940 nb         1 GR9      -0.600000
     22 C22         -0.9390     6.2040     7.7990 c          1 GR9       0.603600
     23 O23         -1.2900     7.2420     8.3260 o          1 GR9      -0.627100
     24 N24          0.2860     5.7030     8.0490 ns         1 GR9      -0.447100
     25 C25          1.1120     6.3150     8.9970 ca         1 GR9      -0.072700
     26 C26          0.5640     6.9420    10.1140 ca         1 GR9      -0.096000
     27 C27          1.4230     7.5340    11.0240 ca         1 GR9      -0.235300
     28 C28          2.7860     7.4850    10.7970 ca         1 GR9       0.401200
     29 N29          3.2740     6.8830     9.7300 nb         1 GR9      -0.671000
     30 C30          2.4920     6.3020     8.8420 ca         1 GR9       0.391200
     31 N31         -3.4500     7.3000     7.0490 nv         1 GR9      -0.974500
     32 C6          -0.5070    -1.2900     0.6540 c3         1 GR9       0.241800
     33 H11C        -0.3600     0.0520    -1.0200 h1         1 GR9       0.039700
     34 H12C        -0.3600     0.8540     0.5600 h1         1 GR9       0.039700
     35 H61C        -1.5840    -1.2430     0.7610 h1         1 GR9       0.064200
     36 H62C        -0.2330    -2.1400     0.0420 h1         1 GR9       0.064200
     37 H31C         1.6790     2.0620    -0.3100 h1         1 GR9       0.033700
     38 H32C         3.0780     1.0890    -0.7860 h1         1 GR9       0.033700
     39 H33C         1.6180     1.0880    -1.7850 h1         1 GR9       0.033700
     40 H41C         3.0840     0.0520     1.3340 h1         1 GR9       0.039700
     41 H42C         1.6110     0.8540     1.9080 h1         1 GR9       0.039700
     42 H51C         1.8680    -1.2430     3.1210 h1         1 GR9       0.064200
     43 H52C         2.0480    -2.1390     1.6010 h1         1 GR9       0.064200
     44 H11         -3.0570     0.0070     2.8340 ha         1 GR9       0.151500
     45 H15          0.4670     0.0050     5.2500 ha         1 GR9       0.151500
     46 H12         -3.6930     2.2040     3.7470 ha         1 GR9       0.142500
     47 H14         -0.1540     2.2040     6.1720 ha         1 GR9       0.142500
     48 H17         -4.2430     3.7240     4.5560 h4         1 GR9       0.039100
     49 H311        -2.8270     7.7870     7.6630 hn         1 GR9       0.465800
     50 H312        -4.3290     7.7070     6.8010 hn         1 GR9       0.465800
     51 H24          0.6070     4.8960     7.5520 hn         1 GR9       0.347500
     52 H26         -0.5080     6.9650    10.2670 ha         1 GR9       0.165000
     53 H30          2.9300     5.8170     7.9770 h4         1 GR9       0.023100
     54 H27          1.0320     8.0310    11.9040 ha         1 GR9       0.143000
     55 H28          3.4620     7.9490    11.5050 h4         1 GR9       0.025100
@<TRIPOS>BOND
     1     1     2 1
     2     1    32 1
     3     2     3 1
     4     2     4 1
     5     4     5 1
     6     5     6 1
     7     6     7 1
     8     6    32 1
     9     7     8 2
    10     7     9 2
    11     7    10 1
    12    10    11 ar
    13    10    15 ar
    14    11    12 ar
    15    12    13 ar
    16    13    14 ar
    17    13    16 1
    18    14    15 ar
    19    16    17 ar
    20    16    21 ar
    21    17    18 ar
    22    18    19 ar
    23    19    20 ar
    24    19    31 1
    25    20    21 ar
    26    20    22 1
    27    22    23 2
    28    22    24 1
    29    24    25 1
    30    25    26 ar
    31    25    30 ar
    32    26    27 ar
    33    27    28 ar
    34    28    29 ar
    35    29    30 ar
    36     1    33 1
    37     1    34 1
    38    32    35 1
    39    32    36 1
    40     3    37 1
    41     3    38 1
    42     3    39 1
    43     4    40 1
    44     4    41 1
    45     5    42 1
    46     5    43 1
    47    11    44 1
    48    15    45 1
    49    12    46 1
    50    14    47 1
    51    17    48 1
    52    31    49 1
    53    31    50 1
    54    24    51 1
    55    26    52 1
    56    30    53 1
    57    27    54 1
    58    28    55 1
@<TRIPOS>SUBSTRUCTURE
     1 GR9         1 TEMP              0 ****  ****    0 ROOT
