@<TRIPOS>MOLECULE
GR9
   55    58     1     0     0
SMALL
bcc


@<TRIPOS>ATOM
      1 C1           0.0000     0.0000     0.0000 c3         1 GR9       0.132800
      2 N2           1.4690     0.0000     0.0000 n3         1 GR9      -0.538600
      3 C3           1.9960     1.1340    -0.7710 c3         1 GR9       0.189100
      4 C4           2.0020     0.0000     1.3690 c3         1 GR9       0.132800
      5 C5           1.5770    -1.2890     2.0790 c3         1 GR9       0.241800
      6 N6           0.1140    -1.4170     1.9810 n3         1 GR9      -0.535500
      7 S7          -0.8070    -1.6940     3.3290 sy         1 GR9       1.055200
      8 O8          -2.0100    -2.2980     2.8750 o          1 GR9      -0.587300
      9 O9           0.0530    -2.2970     4.2850 o          1 GR9      -0.587300
     10 C10         -1.2570    -0.1220     3.9860 ca         1 GR9      -0.166500
     11 C11         -2.4230     0.4930     3.5660 ca         1 GR9       0.007500
     12 C12         -2.7800     1.7230     4.0770 ca         1 GR9      -0.129500
     13 C13         -1.9640     2.3480     5.0180 cp         1 GR9      -0.070500
     14 C14         -0.7910     1.7240     5.4390 ca         1 GR9      -0.129500
     15 C15         -0.4450     0.4910     4.9240 ca         1 GR9       0.007500
     16 C16         -2.3420     3.6710     5.5710 cp         1 GR9       0.197500
     17 C17         -3.5700     4.2460     5.2270 ca         1 GR9       0.400900
     18 N18         -3.9120     5.4220     5.7160 nb         1 GR9      -0.649000
     19 C19         -3.0910     6.0670     6.5380 ca         1 GR9       0.465900
     20 C20         -1.8560     5.4920     6.8860 ca         1 GR9       0.074500
     21 N21         -1.5190     4.3040     6.3940 nb         1 GR9      -0.464000
     22 C22         -0.9390     6.2040     7.7990 c          1 GR9       0.506600
     23 O23         -1.2900     7.2420     8.3260 o          1 GR9      -0.675100
     24 N24          0.2860     5.7030     8.0490 ns         1 GR9       0.011900
     25 C25          1.1120     6.3150     8.9970 ca         1 GR9      -0.219700
     26 C26          0.5640     6.9420    10.1140 ca         1 GR9      -0.071000
     27 C27          1.4230     7.5340    11.0240 ca         1 GR9      -0.201300
     28 C28          2.7860     7.4850    10.7970 ca         1 GR9       0.390200
     29 N29          3.2740     6.8830     9.7300 nb         1 GR9      -0.564000
     30 C30          2.4920     6.3020     8.8420 ca         1 GR9       0.378200
     31 N31         -3.4500     7.3000     7.0490 nv         1 GR9      -0.501500
     32 C6          -0.5070    -1.2900     0.6540 c3         1 GR9       0.241800
     33 H11C        -0.3600     0.0520    -1.0200 h1         1 GR9       0.011700
     34 H12C        -0.3600     0.8540     0.5600 h1         1 GR9       0.011700
     35 H61C        -1.5840    -1.2430     0.7610 h1         1 GR9       0.028700
     36 H62C        -0.2330    -2.1400     0.0420 h1         1 GR9       0.028700
     37 H31C         1.6790     2.0620    -0.3100 h1         1 GR9       0.000367
     38 H32C         3.0780     1.0890    -0.7860 h1         1 GR9       0.000367
     39 H33C         1.6180     1.0880    -1.7850 h1         1 GR9       0.000367
     40 H41C         3.0840     0.0520     1.3340 h1         1 GR9       0.011700
     41 H42C         1.6110     0.8540     1.9080 h1         1 GR9       0.011700
     42 H51C         1.8680    -1.2430     3.1210 h1         1 GR9       0.028700
     43 H52C         2.0480    -2.1390     1.6010 h1         1 GR9       0.028700
     44 H11         -3.0570     0.0070     2.8340 ha         1 GR9       0.122000
     45 H15          0.4670     0.0050     5.2500 ha         1 GR9       0.122000
     46 H12         -3.6930     2.2040     3.7470 ha         1 GR9       0.118000
     47 H14         -0.1540     2.2040     6.1720 ha         1 GR9       0.118000
     48 H17         -4.2430     3.7240     4.5560 h4         1 GR9      -0.005900
     49 H311        -2.8270     7.7870     7.6630 hn         1 GR9       0.307300
     50 H312        -4.3290     7.7070     6.8010 hn         1 GR9       0.307300
     51 H24          0.6070     4.8960     7.5520 hn         1 GR9       0.186500
     52 H26         -0.5080     6.9650    10.2670 ha         1 GR9       0.142000
     53 H30          2.9300     5.8170     7.9770 h4         1 GR9      -0.018900
     54 H27          1.0320     8.0310    11.9040 ha         1 GR9       0.115000
     55 H28          3.4620     7.9490    11.5050 h4         1 GR9      -0.018900
@<TRIPOS>BOND
     1     1     2 1   
     2     1    32 1   
     3     1    33 1   
     4     1    34 1   
     5     2     3 1   
     6     2     4 1   
     7     3    37 1   
     8     3    38 1   
     9     3    39 1   
    10     4     5 1   
    11     4    40 1   
    12     4    41 1   
    13     5     6 1   
    14     5    42 1   
    15     5    43 1   
    16     6     7 1   
    17     6    32 1   
    18     7     8 2   
    19     7     9 2   
    20     7    10 1   
    21    10    11 ar  
    22    10    15 ar  
    23    11    12 ar  
    24    11    44 1   
    25    12    13 ar  
    26    12    46 1   
    27    13    14 ar  
    28    13    16 1   
    29    14    15 ar  
    30    14    47 1   
    31    15    45 1   
    32    16    17 ar  
    33    16    21 ar  
    34    17    18 ar  
    35    17    48 1   
    36    18    19 ar  
    37    19    20 ar  
    38    19    31 1   
    39    20    21 ar  
    40    20    22 1   
    41    22    23 2   
    42    22    24 1   
    43    24    25 1   
    44    24    51 1   
    45    25    26 ar  
    46    25    30 ar  
    47    26    27 ar  
    48    26    52 1   
    49    27    28 ar  
    50    27    54 1   
    51    28    29 ar  
    52    28    55 1   
    53    29    30 ar  
    54    30    53 1   
    55    31    49 1   
    56    31    50 1   
    57    32    35 1   
    58    32    36 1   
@<TRIPOS>SUBSTRUCTURE
     1 GR9         1 TEMP              0 ****  ****    0 ROOT
