@<TRIPOS>MOLECULE
molecule
   46    48     1     0     0
SMALL
bcc


@<TRIPOS>ATOM
      1 N1           0.0000     0.0000     0.0000 ns         1 GRC      -0.479400
      2 C2           1.3630     0.0000     0.0000 cc         1 GRC       0.074800
      3 N2           2.0290     0.0020    -1.2000 nz         1 GRC      -0.607600
      4 N3           2.0580     0.0000     1.1160 nd         1 GRC      -0.743100
      5 C4           1.4510    -0.0010     2.3090 cd         1 GRC       0.149800
      6 C5           0.0530    -0.0020     2.3760 cc         1 GRC       0.061800
      7 C6          -0.6820    -0.0020     1.1670 c          1 GRC       0.681000
      8 O6          -1.9020     0.0030     1.1780 o          1 GRC      -0.730500
      9 N7          -0.2870    -0.0040     3.6880 nc         1 GRC      -0.640000
     10 C8           0.7930    -0.0030     4.4120 cd         1 GRC       0.373400
     11 N9           1.8930    -0.0020     3.6030 na         1 GRC      -0.241900
     12 PA           4.7470    -1.9080     9.3890 p5         1 GRC       1.432800
     13 PB           5.3260    -4.5070    10.6910 p5         1 GRC       1.214600
     14 PG           5.7850    -7.3570    11.4210 p5         1 GRC       0.954700
     15 C1'          3.2910    -0.0010     4.0430 c3         1 GRC       0.267800
     16 O1A          3.3640    -1.4760    10.0910 o          1 GRC      -0.832500
     17 O1B          6.7910    -4.1300    11.2420 o          1 GRC      -0.647500
     18 O1G          4.7120    -7.2230    12.6150 o          1 GRC      -0.599167
     19 C2'          3.8170     1.4460     4.1600 c3         1 GRC      -0.154400
     20 O2A          5.8780    -1.2370    10.0700 o          1 GRC      -0.832500
     21 O2B          4.3400    -4.3840    11.7880 o          1 GRC      -0.647500
     22 O2G          5.7910    -8.8700    10.8720 o          1 GRC      -0.599167
     23 C3'          4.7380     1.4110     5.4000 c3         1 GRC       0.100100
     24 O3'          6.0790     1.7480     5.0380 oh         1 GRC      -0.606800
     25 O3A          4.9270    -3.5040     9.4970 os         1 GRC      -0.710800
     26 C3B          5.3330    -6.2210    10.0690 c3         1 GRC      -0.088700
     27 Cl1          3.6930    -6.6430     9.4520 cl         1 GRC      -0.154400
     28 O3G          7.1320    -7.0090    11.9280 o          1 GRC      -0.599167
     29 C4'          4.6590    -0.0530     5.8840 c3         1 GRC       0.129100
     30 O4'          3.3990    -0.5430     5.3770 os         1 GRC      -0.378600
     31 C5'          4.6750    -0.1100     7.4130 c3         1 GRC       0.240400
     32 O5'          4.7190    -1.4740     7.8390 os         1 GRC      -0.599200
     33 H1          -0.4980     0.0020    -0.8680 hn         1 GRC       0.267500
     34 H2           1.8500     0.8620    -1.6790 hn         1 GRC       0.345467
     35 H3           3.0120    -0.0910    -1.0360 hn         1 GRC       0.345467
     36 H4           0.8160    -0.0030     5.4950 h5         1 GRC       0.069100
     37 H5           3.9070    -0.5690     3.3570 h2         1 GRC       0.063700
     38 H8           2.9970     2.1350     4.3190 hc         1 GRC       0.056700
     39 H9           4.3830     1.7160     3.2770 hc         1 GRC       0.056700
     40 H12          4.3660     2.0810     6.1650 h1         1 GRC       0.045700
     41 H13          6.2650     2.6320     5.3090 ho         1 GRC       0.386000
     42 H14          6.0550    -6.3110     9.2660 h1         1 GRC       0.097700
     43 H15          5.4790    -0.6290     5.4720 h1         1 GRC       0.066700
     44 H16          5.5480     0.4130     7.7850 h1         1 GRC       0.034200
     45 H17          3.7800     0.3610     7.8010 h1         1 GRC       0.034200
     46 H23          1.7150    -0.7690    -1.7560 hn         1 GRC       0.345467
@<TRIPOS>BOND
     1     3     2 1
     2     2     1 1
     3     2     4 2
     4     1     7 1
     5     4     5 1
     6     7     8 2
     7     7     6 1
     8     5     6 2
     9     5    11 1
    10    19    15 1
    11    19    23 1
    12    15    11 1
    13    15    30 1
    14     6     9 1
    15    11    10 1
    16    24    23 1
    17    23    29 1
    18    30    29 1
    19     9    10 2
    20    29    31 1
    21    17    13 1
    22    31    32 1
    23    32    12 1
    24    13    25 1
    25    13    21 1
    26    13    26 1
    27    25    12 1
    28    27    26 1
    29    12    20 1
    30    12    16 1
    31    26    14 1
    32    28    14 1
    33    14    18 1
    34    14    22 1
    35     1    33 1
    36     3    34 1
    37     3    35 1
    38    10    36 1
    39    15    37 1
    40    19    38 1
    41    19    39 1
    42    23    40 1
    43    24    41 1
    44    26    42 1
    45    29    43 1
    46    31    44 1
    47    31    45 1
    48    46     3 1
@<TRIPOS>SUBSTRUCTURE
     1 GRC         1 TEMP              0 ****  ****    0 ROOT
