@<TRIPOS>MOLECULE
molecule
   78    80     1     0     0
SMALL
bcc


@<TRIPOS>ATOM
      1 C4           0.0000     0.0000     0.0000 ca         1 GRD       0.439800
      2 C5           1.4060     0.0000     0.0000 ca         1 GRD      -0.161200
      3 C6           2.0690     0.0000     1.2390 ca         1 GRD       0.779200
      4 C8           0.7600    -0.0000    -2.0700 cc         1 GRD       0.426700
      5 N1           1.3370     0.0000     2.3490 nb         1 GRD      -0.772000
      6 N3          -0.6460     0.0000     1.1620 nb         1 GRD      -0.756000
      7 CAN         -5.5970    14.3510     4.9300 ca         1 GRD      -0.132500
      8 CAL         -6.3050    13.9930     6.0610 ca         1 GRD      -0.116000
      9 CAU         -3.7090     1.4250    -2.4230 c3         1 GRD       0.115000
     10 CBM         -7.0220    12.9650     3.5970 ca         1 GRD      -0.102300
     11 CAQ         -5.9540    13.8370     3.6970 ca         1 GRD      -0.101500
     12 CAS         -7.1170     4.2560    -0.7760 c3         1 GRD      -0.097400
     13 CAT         -2.2740     1.4280    -1.8920 c3         1 GRD      -0.126400
     14 N7           1.8050    -0.0010    -1.2940 nd         1 GRD      -0.572100
     15 N9          -0.3770    -0.0060    -1.3190 na         1 GRD      -0.256000
     16 C2           0.0180     0.0010     2.2980 ca         1 GRD       0.706900
     17 N6           3.4510    -0.0000     1.3020 nv         1 GRD      -1.073500
     18 CBK         -5.4590     3.0440    -2.9250 c          1 GRD       0.631100
     19 N1C         -4.2090     2.8010    -2.4850 ns         1 GRD      -0.588900
     20 CAV         -1.7520    -0.0080    -1.8280 c3         1 GRD       0.056300
     21 CBU         -5.9740     4.4600    -2.9890 c3         1 GRD       0.061100
     22 OAJ         -7.2700     4.4680    -3.5920 oh         1 GRD      -0.572800
     23 CBS         -6.0670     5.0330    -1.5730 c3         1 GRD       0.125700
     24 N1E         -6.4530     6.4440    -1.6430 ns         1 GRD      -0.578900
     25 CBJ         -6.1240     7.2830    -0.6400 c          1 GRD       0.655100
     26 CBR         -6.4660     8.7470    -0.7400 c3         1 GRD       0.065700
     27 CAY         -5.5430     9.4190    -1.7570 c3         1 GRD      -0.091400
     28 CBP         -5.7510     8.7820    -3.1320 c3         1 GRD      -0.097700
     29 CAB         -7.1610     9.1010    -3.6350 c3         1 GRD      -0.090600
     30 CAC         -4.7210     9.3430    -4.1150 c3         1 GRD      -0.090600
     31 N1D         -6.2910     9.3790     0.5710 ns         1 GRD      -0.560900
     32 CBI         -6.9280    10.5330     0.8530 c          1 GRD       0.752100
     33 OBF         -6.6910    11.1650     2.0170 os         1 GRD      -0.431900
     34 CAW         -7.4120    12.4040     2.2530 c3         1 GRD       0.216700
     35 CAP         -7.7300    12.6060     4.7280 ca         1 GRD      -0.101500
     36 CAM         -7.3730    13.1200     5.9600 ca         1 GRD      -0.132500
     37 H8           0.7900     0.0030    -3.1530 h5         1 GRD       0.079800
     38 HAN         -4.7600    15.0350     5.0100 ha         1 GRD       0.132000
     39 HAL         -6.0250    14.3960     7.0270 ha         1 GRD       0.131000
     40 HAU         -3.7270     0.9900    -3.4140 h1         1 GRD       0.057200
     41 HAUA        -4.3380     0.8420    -1.7610 h1         1 GRD       0.057200
     42 HAQ         -5.3990    14.1180     2.8110 ha         1 GRD       0.134000
     43 HAA         -7.5920     4.0010     1.3040 hc         1 GRD       0.041700
     44 HAAA        -6.1030     4.9080     1.0030 hc         1 GRD       0.041700
     45 HAAB        -7.6750     5.6750     0.7380 hc         1 GRD       0.041700
     46 HAS         -6.8790     3.1990    -0.7990 hc         1 GRD       0.060700
     47 HASA        -8.0950     4.4150    -1.2150 hc         1 GRD       0.060700
     48 HAT         -1.6460     2.0120    -2.5530 hc         1 GRD       0.062200
     49 HATA        -2.2570     1.8630    -0.9000 hc         1 GRD       0.062200
     50 H2          -0.5400     0.0010     3.2270 h5         1 GRD       0.064100
     51 HN6          3.9490     0.8660     1.3560 hn         1 GRD       0.444800
     52 HN6A         3.9500    -0.8670     1.3270 hn         1 GRD       0.444800
     53 HN1C        -3.6160     3.5610    -2.2180 hn         1 GRD       0.316500
     54 HAV         -2.3810    -0.5920    -1.1660 h1         1 GRD       0.072200
     55 HAVA        -1.7700    -0.4430    -2.8190 h1         1 GRD       0.072200
     56 HBU         -5.2970     5.0640    -3.5800 h1         1 GRD       0.046700
     57 HOAJ        -7.1800     4.4950    -4.5300 ho         1 GRD       0.412000
     58 HBS         -5.1050     4.9460    -1.0840 h1         1 GRD       0.079700
     59 HN1E        -7.0090     6.7730    -2.4080 hn         1 GRD       0.333500
     60 HBR         -7.4960     8.8560    -1.0580 h1         1 GRD       0.096700
     61 HAY         -4.5120     9.2880    -1.4510 hc         1 GRD       0.064200
     62 HAYA        -5.7720    10.4760    -1.8100 hc         1 GRD       0.064200
     63 HBP         -5.6290     7.7080    -3.0560 hc         1 GRD       0.051700
     64 HAB         -7.8910     8.6580    -2.9680 hc         1 GRD       0.038033
     65 HABA        -7.2900     8.6970    -4.6310 hc         1 GRD       0.038033
     66 HABB        -7.3010    10.1750    -3.6600 hc         1 GRD       0.038033
     67 HAC         -4.8040    10.4230    -4.1480 hc         1 GRD       0.038033
     68 HACA        -4.9050     8.9360    -5.1020 hc         1 GRD       0.038033
     69 HACB        -3.7250     9.0670    -3.7910 hc         1 GRD       0.038033
     70 HN1D        -5.6720     8.9720     1.2440 hn         1 GRD       0.347500
     71 HAW         -7.1640    13.1190     1.4780 h1         1 GRD       0.056700
     72 HAWA        -8.4780    12.2100     2.2380 h1         1 GRD       0.056700
     73 HAP         -8.5670    11.9220     4.6480 ha         1 GRD       0.134000
     74 HAM         -7.9290    12.8390     6.8460 ha         1 GRD       0.132000
     75 CAA         -7.1220     4.7460     0.6730 c3         1 GRD      -0.095100
     76 OAH         -5.5520     6.8590     0.3420 o          1 GRD      -0.612100
     77 OAG         -7.7150    11.0030     0.0550 o          1 GRD      -0.623000
     78 OAI         -6.1710     2.1240    -3.2700 o          1 GRD      -0.580100
@<TRIPOS>BOND
     1     1     2 ar
     2     1     6 ar
     3     1    15 1
     4     2     3 ar
     5     2    14 1
     6     3     5 ar
     7     3    17 1
     8     4    14 2
     9     4    15 1
    10     5    16 ar
    11     6    16 ar
    12     7     8 ar
    13     7    11 ar
    14     8    36 ar
    15     9    13 1
    16     9    19 1
    17    10    11 ar
    18    10    34 1
    19    10    35 ar
    20    75    12 1
    21    76    25 2
    22    77    32 2
    23    12    23 1
    24    13    20 1
    25    15    20 1
    26    78    18 2
    27    18    19 1
    28    18    21 1
    29    21    22 1
    30    21    23 1
    31    23    24 1
    32    24    25 1
    33    25    26 1
    34    26    27 1
    35    26    31 1
    36    27    28 1
    37    28    29 1
    38    28    30 1
    39    31    32 1
    40    32    33 1
    41    33    34 1
    42    35    36 ar
    43     4    37 1
    44     7    38 1
    45     8    39 1
    46     9    40 1
    47     9    41 1
    48    11    42 1
    49    75    43 1
    50    75    44 1
    51    75    45 1
    52    12    46 1
    53    12    47 1
    54    13    48 1
    55    13    49 1
    56    16    50 1
    57    17    51 1
    58    17    52 1
    59    19    53 1
    60    20    54 1
    61    20    55 1
    62    21    56 1
    63    22    57 1
    64    23    58 1
    65    24    59 1
    66    26    60 1
    67    27    61 1
    68    27    62 1
    69    28    63 1
    70    29    64 1
    71    29    65 1
    72    29    66 1
    73    30    67 1
    74    30    68 1
    75    30    69 1
    76    31    70 1
    77    34    71 1
    78    34    72 1
    79    35    73 1
    80    36    74 1
@<TRIPOS>SUBSTRUCTURE
     1 GRD         1 TEMP              0 ****  ****    0 ROOT
