@<TRIPOS>MOLECULE
GRD
   78    80     1     0     0
SMALL
bcc


@<TRIPOS>ATOM
      1 C4           0.0000     0.0000     0.0000 ca         1 GRD       0.225800
      2 C5           1.4060     0.0000     0.0000 ca         1 GRD      -0.186200
      3 C6           2.0690     0.0000     1.2390 ca         1 GRD       0.603200
      4 C8           0.7600    -0.0000    -2.0700 cc         1 GRD       0.252700
      5 N1           1.3370     0.0000     2.3490 nb         1 GRD      -0.658000
      6 N3          -0.6460     0.0000     1.1620 nb         1 GRD      -0.621000
      7 CAN         -5.5970    14.3510     4.9300 ca         1 GRD      -0.106500
      8 CAL         -6.3050    13.9930     6.0610 ca         1 GRD      -0.090000
      9 CAU         -3.7090     1.4250    -2.4230 c3         1 GRD       0.057000
     10 CBM         -7.0220    12.9650     3.5970 ca         1 GRD      -0.120300
     11 CAQ         -5.9540    13.8370     3.6970 ca         1 GRD      -0.073500
     12 CAS         -7.1170     4.2560    -0.7760 c3         1 GRD      -0.047400
     13 CAT         -2.2740     1.4280    -1.8920 c3         1 GRD      -0.063400
     14 N7           1.8050    -0.0010    -1.2940 nd         1 GRD      -0.483100
     15 N9          -0.3770    -0.0060    -1.3190 na         1 GRD       0.203000
     16 C2           0.0180     0.0010     2.2980 ca         1 GRD       0.642900
     17 N6           3.4510    -0.0000     1.3020 nv         1 GRD      -0.645500
     18 CBK         -5.4590     3.0440    -2.9250 c          1 GRD       0.542100
     19 N1C         -4.2090     2.8010    -2.4850 ns         1 GRD      -0.200900
     20 CAV         -1.7520    -0.0080    -1.8280 c3         1 GRD      -0.025700
     21 CBU         -5.9740     4.4600    -2.9890 c3         1 GRD       0.111100
     22 OAJ         -7.2700     4.4680    -3.5920 oh         1 GRD      -0.554800
     23 CBS         -6.0670     5.0330    -1.5730 c3         1 GRD       0.016700
     24 N1E         -6.4530     6.4440    -1.6430 ns         1 GRD      -0.192900
     25 CBJ         -6.1240     7.2830    -0.6400 c          1 GRD       0.573100
     26 CBR         -6.4660     8.7470    -0.7400 c3         1 GRD      -0.046300
     27 CAY         -5.5430     9.4190    -1.7570 c3         1 GRD      -0.040400
     28 CBP         -5.7510     8.7820    -3.1320 c3         1 GRD      -0.084700
     29 CAB         -7.1610     9.1010    -3.6350 c3         1 GRD       0.004400
     30 CAC         -4.7210     9.3430    -4.1150 c3         1 GRD       0.004400
     31 N1D         -6.2910     9.3790     0.5710 ns         1 GRD      -0.155900
     32 CBI         -6.9280    10.5330     0.8530 c          1 GRD       0.680100
     33 OBF         -6.6910    11.1650     2.0170 os         1 GRD      -0.416900
     34 CAW         -7.4120    12.4040     2.2530 c3         1 GRD       0.302700
     35 CAP         -7.7300    12.6060     4.7280 ca         1 GRD      -0.073500
     36 CAM         -7.3730    13.1200     5.9600 ca         1 GRD      -0.106500
     37 H8           0.7900     0.0030    -3.1530 h5         1 GRD       0.032800
     38 HAN         -4.7600    15.0350     5.0100 ha         1 GRD       0.103500
     39 HAL         -6.0250    14.3960     7.0270 ha         1 GRD       0.102000
     40 HAU         -3.7270     0.9900    -3.4140 h1         1 GRD       0.029700
     41 HAUA        -4.3380     0.8420    -1.7610 h1         1 GRD       0.029700
     42 HAQ         -5.3990    14.1180     2.8110 ha         1 GRD       0.106500
     43 HAA         -7.5920     4.0010     1.3040 hc         1 GRD       0.014700
     44 HAAA        -6.1030     4.9080     1.0030 hc         1 GRD       0.014700
     45 HAAB        -7.6750     5.6750     0.7380 hc         1 GRD       0.014700
     46 HAS         -6.8790     3.1990    -0.7990 hc         1 GRD       0.033700
     47 HASA        -8.0950     4.4150    -1.2150 hc         1 GRD       0.033700
     48 HAT         -1.6460     2.0120    -2.5530 hc         1 GRD       0.030700
     49 HATA        -2.2570     1.8630    -0.9000 hc         1 GRD       0.030700
     50 H2          -0.5400     0.0010     3.2270 h5         1 GRD       0.000100
     51 HN6          3.9490     0.8660     1.3560 hn         1 GRD       0.282800
     52 HN6A         3.9500    -0.8670     1.3270 hn         1 GRD       0.282800
     53 HN1C        -3.6160     3.5610    -2.2180 hn         1 GRD       0.178500
     54 HAV         -2.3810    -0.5920    -1.1660 h1         1 GRD       0.043200
     55 HAVA        -1.7700    -0.4430    -2.8190 h1         1 GRD       0.043200
     56 HBU         -5.2970     5.0640    -3.5800 h1         1 GRD       0.009700
     57 HOAJ        -7.1800     4.4950    -4.5300 ho         1 GRD       0.398000
     58 HBS         -5.1050     4.9460    -1.0840 h1         1 GRD       0.055700
     59 HN1E        -7.0090     6.7730    -2.4080 hn         1 GRD       0.204500
     60 HBR         -7.4960     8.8560    -1.0580 h1         1 GRD       0.073700
     61 HAY         -4.5120     9.2880    -1.4510 hc         1 GRD       0.036200
     62 HAYA        -5.7720    10.4760    -1.8100 hc         1 GRD       0.036200
     63 HBP         -5.6290     7.7080    -3.0560 hc         1 GRD       0.029700
     64 HAB         -7.8910     8.6580    -2.9680 hc         1 GRD       0.007367
     65 HABA        -7.2900     8.6970    -4.6310 hc         1 GRD       0.007367
     66 HABB        -7.3010    10.1750    -3.6600 hc         1 GRD       0.007367
     67 HAC         -4.8040    10.4230    -4.1480 hc         1 GRD       0.007367
     68 HACA        -4.9050     8.9360    -5.1020 hc         1 GRD       0.007367
     69 HACB        -3.7250     9.0670    -3.7910 hc         1 GRD       0.007367
     70 HN1D        -5.6720     8.9720     1.2440 hn         1 GRD       0.202500
     71 HAW         -7.1640    13.1190     1.4780 h1         1 GRD       0.014200
     72 HAWA        -8.4780    12.2100     2.2380 h1         1 GRD       0.014200
     73 HAP         -8.5670    11.9220     4.6480 ha         1 GRD       0.106500
     74 HAM         -7.9290    12.8390     6.8460 ha         1 GRD       0.103500
     75 CAA         -7.1220     4.7460     0.6730 c3         1 GRD      -0.018100
     76 OAH         -5.5520     6.8590     0.3420 o          1 GRD      -0.651100
     77 OAG         -7.7150    11.0030     0.0550 o          1 GRD      -0.673000
     78 OAI         -6.1710     2.1240    -3.2700 o          1 GRD      -0.616100
@<TRIPOS>BOND
     1     1     2 ar  
     2     1     6 ar  
     3     1    15 1   
     4     2     3 ar  
     5     2    14 1   
     6     3     5 ar  
     7     3    17 1   
     8     4    14 2   
     9     4    15 1   
    10     4    37 1   
    11     5    16 ar  
    12     6    16 ar  
    13     7     8 ar  
    14     7    11 ar  
    15     7    38 1   
    16     8    36 ar  
    17     8    39 1   
    18     9    13 1   
    19     9    19 1   
    20     9    40 1   
    21     9    41 1   
    22    10    11 ar  
    23    10    34 1   
    24    10    35 ar  
    25    11    42 1   
    26    12    23 1   
    27    12    46 1   
    28    12    47 1   
    29    12    75 1   
    30    13    20 1   
    31    13    48 1   
    32    13    49 1   
    33    15    20 1   
    34    16    50 1   
    35    17    51 1   
    36    17    52 1   
    37    18    19 1   
    38    18    21 1   
    39    18    78 2   
    40    19    53 1   
    41    20    54 1   
    42    20    55 1   
    43    21    22 1   
    44    21    23 1   
    45    21    56 1   
    46    22    57 1   
    47    23    24 1   
    48    23    58 1   
    49    24    25 1   
    50    24    59 1   
    51    25    26 1   
    52    25    76 2   
    53    26    27 1   
    54    26    31 1   
    55    26    60 1   
    56    27    28 1   
    57    27    61 1   
    58    27    62 1   
    59    28    29 1   
    60    28    30 1   
    61    28    63 1   
    62    29    64 1   
    63    29    65 1   
    64    29    66 1   
    65    30    67 1   
    66    30    68 1   
    67    30    69 1   
    68    31    32 1   
    69    31    70 1   
    70    32    33 1   
    71    32    77 2   
    72    33    34 1   
    73    34    71 1   
    74    34    72 1   
    75    35    36 ar  
    76    35    73 1   
    77    36    74 1   
    78    43    75 1   
    79    44    75 1   
    80    45    75 1   
@<TRIPOS>SUBSTRUCTURE
     1 GRD         1 TEMP              0 ****  ****    0 ROOT
