@<TRIPOS>MOLECULE
GRE
   16    16     1     0     0
SMALL
bcc


@<TRIPOS>ATOM
      1 C1A         0.2410    0.0090   -0.2460 c         1 GRE      0.926200
      2 O1A         0.8440   -1.0660    0.0540 o         1 GRE     -0.838300
      3 O2A         0.4720    1.0890    0.3790 o         1 GRE     -0.838300
      4 C1         -0.7680    0.0040   -1.3670 ca        1 GRE     -0.302600
      5 C2         -1.0610   -1.1720   -2.0890 ca        1 GRE      0.216100
      6 C3         -2.0050   -1.1790   -3.1380 ca        1 GRE     -0.255000
      7 C4         -2.6650   -0.0050   -3.4740 ca        1 GRE     -0.077000
      8 C5         -2.4050    1.1730   -2.7880 ca        1 GRE     -0.255000
      9 C6         -1.4600    1.1750   -1.7400 ca        1 GRE      0.216100
     10 O2         -0.4810   -2.3870   -1.8550 oh        1 GRE     -0.553100
     11 O6         -1.2940    2.3940   -1.1440 oh        1 GRE     -0.553100
     12 H3         -2.2010   -2.1160   -3.6710 ha        1 GRE      0.124000
     13 H4         -3.4010   -0.0080   -4.2910 ha        1 GRE      0.103000
     14 H5         -2.9200    2.1080   -3.0430 ha        1 GRE      0.124000
     15 HO2         0.1620   -2.3120   -1.1190 ho        1 GRE      0.481000
     16 HO6        -0.6280    2.3260   -0.4280 ho        1 GRE      0.481000
@<TRIPOS>BOND
     1    1    2 1   
     2    1    3 1   
     3    1    4 1   
     4    4    5 ar  
     5    4    9 ar  
     6    5    6 ar  
     7    5   10 1   
     8    6    7 ar  
     9    6   12 1   
    10    7    8 ar  
    11    7   13 1   
    12    8    9 ar  
    13    8   14 1   
    14    9   11 1   
    15   10   15 1   
    16   11   16 1   
@<TRIPOS>SUBSTRUCTURE
     1 GRE         1 TEMP              0 ****  ****    0 ROOT
