@<TRIPOS>MOLECULE
molecule
   16    16     1     0     0
SMALL
bcc


@<TRIPOS>ATOM
      1 C1A          0.0000     0.0000     0.0000 c          1 GRE       0.895200
      2 O1A          1.2330     0.0000     0.0000 o          1 GRE      -0.828800
      3 O2A         -0.7290     0.0000     1.1470 o          1 GRE      -0.828800
      4 C1          -0.8420     0.0010    -1.1920 ca         1 GRE      -0.082600
      5 C2          -1.2450    -1.2060    -1.7620 ca         1 GRE       0.132100
      6 C3          -2.0500    -1.2040    -2.9010 ca         1 GRE      -0.210000
      7 C4          -2.4540     0.0040    -3.4680 ca         1 GRE      -0.134000
      8 C5          -2.0510     1.2110    -2.8980 ca         1 GRE      -0.210000
      9 C6          -1.2450     1.2100    -1.7590 ca         1 GRE       0.132100
     10 O2          -0.8620    -2.3980    -1.2240 oh         1 GRE      -0.495100
     11 O6          -0.8640     2.4010    -1.2180 oh         1 GRE      -0.495100
     12 H3          -2.3630    -2.1420    -3.3440 ha         1 GRE       0.112000
     13 H4          -3.0790     0.0040    -4.3530 ha         1 GRE       0.106000
     14 H5          -2.3640     2.1500    -3.3390 ha         1 GRE       0.112000
     15 HO2         -0.3330    -2.8690    -1.8470 ho         1 GRE       0.398000
     16 HO6         -0.3330     2.8730    -1.8390 ho         1 GRE       0.398000
@<TRIPOS>BOND
     1     1     2 1
     2     1     3 1
     3     1     4 1
     4     4     5 ar
     5     4     9 ar
     6     5     6 ar
     7     5    10 1
     8     6     7 ar
     9     6    12 1
    10     7     8 ar
    11     7    13 1
    12     8     9 ar
    13     8    14 1
    14     9    11 1
    15    10    15 1
    16    11    16 1
@<TRIPOS>SUBSTRUCTURE
     1 GRE         1 TEMP              0 ****  ****    0 ROOT
