@<TRIPOS>MOLECULE
molecule
   25    25     1     0     0
SMALL
bcc


@<TRIPOS>ATOM
      1 C1           0.0000     0.0000     0.0000 c3         1 GRF       0.101100
      2 O6          -0.5020     1.1730    -0.6450 oh         1 GRF      -0.577800
      3 C2           1.5470     0.0000     0.0000 c3         1 GRF       0.077100
      4 O8           2.0480     1.1730    -0.6460 oh         1 GRF      -0.578800
      5 C3           1.9190     0.0000     1.4990 c3         1 GRF       0.277300
      6 O4           0.7700    -0.5660     2.1670 os         1 GRF      -0.363600
      7 C5          -0.3770     0.0020     1.4970 c3         1 GRF       0.117100
      8 C10         -1.6170    -0.8610     1.7390 c3         1 GRF       0.165400
      9 O12         -1.9710    -0.8080     3.1220 os         1 GRF      -0.520200
     10 N19          3.1060    -0.8330     1.7310 nz         1 GRF      -0.812600
     11 P15         -3.2760    -1.7340     3.3040 p5         1 GRF       1.131900
     12 O16         -2.8960    -3.2660     2.9850 o          1 GRF      -0.853167
     13 O17         -3.8100    -1.6170     4.8180 o          1 GRF      -0.853167
     14 O18         -4.3330    -1.2840     2.3720 o          1 GRF      -0.853167
     15 H1          -0.3760    -0.8950    -0.4810 h1         1 GRF       0.073700
     16 HO6         -1.1570     0.9280    -1.2780 ho         1 GRF       0.416000
     17 H2           1.9230    -0.8950    -0.4810 h1         1 GRF       0.032700
     18 HO8          2.3360     0.9530    -1.5170 ho         1 GRF       0.409000
     19 H3           2.0910     1.0130     1.8420 hx         1 GRF       0.113700
     20 H5          -0.5450     1.0160     1.8390 h1         1 GRF       0.089700
     21 H101        -1.4030    -1.8860     1.4600 h1         1 GRF       0.063700
     22 H102        -2.4390    -0.4870     1.1410 h1         1 GRF       0.063700
     23 H191         2.8570    -1.7990     1.6470 hn         1 GRF       0.426467
     24 H192         3.4620    -0.6590     2.6500 hn         1 GRF       0.426467
     25 H193         3.8080    -0.6100     1.0530 hn         1 GRF       0.426467
@<TRIPOS>BOND
     1     1     2 1
     2     1     3 1
     3     1     7 1
     4     1    15 1
     5     2    16 1
     6     3     4 1
     7     3     5 1
     8     3    17 1
     9     4    18 1
    10     5     6 1
    11     5    10 1
    12     5    19 1
    13     6     7 1
    14     7     8 1
    15     7    20 1
    16     8     9 1
    17     8    21 1
    18     8    22 1
    19     9    11 1
    20    10    23 1
    21    10    24 1
    22    11    12 1
    23    11    13 1
    24    11    14 1
    25    25    10 1
@<TRIPOS>SUBSTRUCTURE
     1 GRF         1 TEMP              0 ****  ****    0 ROOT
