@<TRIPOS>MOLECULE
GRF
   25    25     1     0     0
SMALL
bcc


@<TRIPOS>ATOM
      1 C1         -0.0210    0.5830   -0.2370 c3        1 GRF      0.070100
      2 O6         -0.0030    1.9340   -0.6730 oh        1 GRF     -0.609800
      3 C2          1.4390    0.0710   -0.2330 c3        1 GRF      0.128100
      4 O8          2.3690    1.0380   -0.6620 oh        1 GRF     -0.588800
      5 C3          1.7160   -0.3400    1.2480 c3        1 GRF      0.322300
      6 O4          0.6390    0.2340    2.0320 os        1 GRF     -0.443600
      7 C5         -0.5160    0.4330    1.2170 c3        1 GRF      0.076100
      8 C10        -1.5200   -0.7260    1.3290 c3        1 GRF      0.180400
      9 O12        -1.9790   -0.8520    2.6290 os        1 GRF     -0.571200
     10 N19         1.8660   -1.7600    1.4440 n3        1 GRF     -0.916800
     11 P15        -1.7000   -2.3260    3.3660 p5        1 GRF      1.426800
     12 O16        -0.0980   -2.0540    3.5580 oh        1 GRF     -0.795400
     13 O17        -2.3590   -2.2640    4.6790 o         1 GRF     -0.823500
     14 O18        -1.8420   -3.3550    2.3180 o         1 GRF     -0.823500
     15 H1         -0.6530   -0.0140   -0.9480 h1        1 GRF      0.058700
     16 HO6        -0.8130    2.3440   -0.3480 ho        1 GRF      0.407000
     17 H2          1.5710   -0.7860   -0.9460 h1        1 GRF      0.093700
     18 HO8         2.1430    1.8720   -0.2300 ho        1 GRF      0.413000
     19 H3          2.6430    0.1770    1.6310 h2        1 GRF      0.078700
     20 H5         -0.9850    1.3760    1.6110 h1        1 GRF      0.069700
     21 H101       -1.0520   -1.6880    0.9770 h1        1 GRF      0.030200
     22 H102       -2.3910   -0.4720    0.6570 h1        1 GRF      0.030200
     23 H191        0.1010   -1.1710    3.8470 ho        1 GRF      0.435000
     24 H192        1.0850   -2.2620    1.0650 hn        1 GRF      0.376300
     25 H193        1.9020   -1.9640    2.4290 hn        1 GRF      0.376300
@<TRIPOS>BOND
     1    1    2 1   
     2    1    3 1   
     3    1    7 1   
     4    1   15 1   
     5    2   16 1   
     6    3    4 1   
     7    3    5 1   
     8    3   17 1   
     9    4   18 1   
    10    5    6 1   
    11    5   10 1   
    12    5   19 1   
    13    6    7 1   
    14    7    8 1   
    15    7   20 1   
    16    8    9 1   
    17    8   21 1   
    18    8   22 1   
    19    9   11 1   
    20   10   24 1   
    21   10   25 1   
    22   11   12 1   
    23   11   13 1   
    24   11   14 1   
    25   12   23 1   
@<TRIPOS>SUBSTRUCTURE
     1 GRF         1 TEMP              0 ****  ****    0 ROOT
