@<TRIPOS>MOLECULE
molecule
   62    61     1     0     0
SMALL
bcc


@<TRIPOS>ATOM
      1 C20          0.0000     0.0000     0.0000 c3         1 GRG      -0.072400
      2 C19          2.2610    -0.0010    -1.3050 c3         1 GRG      -0.072400
      3 C18          1.5060     0.0000     0.0000 c2         1 GRG      -0.067400
      4 C17          2.1610     0.0000     1.1350 c2         1 GRG      -0.554200
      5 C16          1.4080     0.0010     2.4390 c3         1 GRG      -0.070200
      6 C14          1.6030    -0.3410     5.7520 c3         1 GRG      -0.103900
      7 C13          1.1150    -1.1800     4.6000 c2         1 GRG      -0.055400
      8 C15          1.8680    -1.1810     3.2960 c3         1 GRG      -0.046200
      9 C12          0.0350    -1.9100     4.7330 c2         1 GRG      -0.539200
     10 C11         -0.7880    -1.8150     5.9920 c3         1 GRG      -0.057200
     11 C9          -2.2390    -1.4920     5.6310 c3         1 GRG      -0.001200
     12 C8          -3.0610    -1.3970     6.8900 c2         1 GRG      -0.154400
     13 C10         -3.6450    -2.6440     7.5030 c3         1 GRG      -0.050900
     14 C7          -3.2700    -0.2320     7.4510 c2         1 GRG      -0.178200
     15 C6          -3.9860    -0.1510     8.7750 c3         1 GRG      -0.050200
     16 C5          -3.1240     0.6230     9.7740 c3         1 GRG      -0.019200
     17 C3          -3.8410     0.7050    11.0970 c2         1 GRG      -0.210400
     18 C4          -4.8480     1.7980    11.3420 c3         1 GRG      -0.037900
     19 C2          -3.5870    -0.1740    12.0350 c2         1 GRG      -0.110200
     20 C1          -4.3020    -0.0920    13.3580 c3         1 GRG       0.250600
     21 O1          -4.7450    -1.3950    13.7430 os         1 GRG      -0.600200
     22 PA          -5.5500    -1.6830    15.1070 p5         1 GRG       1.431800
     23 O1A         -4.6000    -1.3650    16.3670 o          1 GRG      -0.856000
     24 O3A         -6.0010    -3.2270    15.1500 os         1 GRG      -0.715800
     25 O2A         -6.7500    -0.8160    15.1630 o          1 GRG      -0.856000
     26 PB          -7.1230    -4.0420    15.9680 p5         1 GRG       1.314900
     27 O1B         -7.3390    -5.4860    15.2880 o          1 GRG      -0.812833
     28 O2B         -6.6420    -4.2340    17.4920 o          1 GRG      -0.812833
     29 O3B         -8.3960    -3.2890    15.9420 o          1 GRG      -0.812833
     30 H201        -0.3610     0.0790    -1.0180 hc         1 GRG       0.032700
     31 H202        -0.3610     0.8430     0.5770 hc         1 GRG       0.032700
     32 H203        -0.3610    -0.9210     0.4410 hc         1 GRG       0.032700
     33 H191         3.3260     0.0240    -1.1060 hc         1 GRG       0.032700
     34 H192         1.9810     0.8700    -1.8840 hc         1 GRG       0.032700
     35 H193         2.0180    -0.8980    -1.8620 hc         1 GRG       0.032700
     36 H17          1.6940    -0.8740     1.5720 ha         1 GRG       0.327000
     37 H161         1.6020     0.9270     2.9680 hc         1 GRG       0.054200
     38 H162         0.3460    -0.0870     2.2430 hc         1 GRG       0.054200
     39 H141         2.5650     0.0910     5.5020 hc         1 GRG       0.035033
     40 H142         0.8920     0.4520     5.9480 hc         1 GRG       0.035033
     41 H143         1.7040    -0.9620     6.6340 hc         1 GRG       0.035033
     42 H151         1.6740    -2.1070     2.7680 hc         1 GRG       0.047700
     43 H152         2.9300    -1.0930     3.4920 hc         1 GRG       0.047700
     44 H12          0.2940    -2.4610     5.6290 ha         1 GRG       0.271000
     45 H111        -0.3900    -1.0310     6.6250 hc         1 GRG       0.022700
     46 H112        -0.7490    -2.7600     6.5200 hc         1 GRG       0.022700
     47 HC91        -2.2770    -0.5470     5.1020 hc         1 GRG       0.045200
     48 HC92        -2.6370    -2.2760     4.9970 hc         1 GRG       0.045200
     49 H101        -3.5080    -3.4780     6.8250 hc         1 GRG       0.042700
     50 H102        -3.1420    -2.8550     8.4400 hc         1 GRG       0.042700
     51 H103        -4.7020    -2.4960     7.6860 hc         1 GRG       0.042700
     52 HC7         -2.8500     0.6630     7.0090 ha         1 GRG       0.109000
     53 HC61        -4.9320     0.3600     8.6430 hc         1 GRG       0.058200
     54 HC62        -4.1650    -1.1510     9.1510 hc         1 GRG       0.058200
     55 HC51        -2.1780     0.1120     9.9070 hc         1 GRG       0.027200
     56 HC52        -2.9440     1.6230     9.3980 hc         1 GRG       0.027200
     57 HC41        -5.8360     1.3630    11.4400 hc         1 GRG       0.032367
     58 HC42        -4.8390     2.4900    10.5090 hc         1 GRG       0.032367
     59 HC43        -4.5940     2.3260    12.2530 hc         1 GRG       0.032367
     60 HC2         -2.8610    -0.9590    11.8590 ha         1 GRG       0.119000
     61 HC11        -3.6270     0.2950    14.1110 h1         1 GRG       0.030200
     62 HC12        -5.1570     0.5670    13.2660 h1         1 GRG       0.030200
@<TRIPOS>BOND
     1     1     3 1
     2     1    30 1
     3     1    31 1
     4     1    32 1
     5     2     3 1
     6     2    33 1
     7     2    34 1
     8     2    35 1
     9     3     4 2
    10     4     5 1
    11     4    36 1
    12     5     8 1
    13     5    37 1
    14     5    38 1
    15     6     7 1
    16     6    39 1
    17     6    40 1
    18     6    41 1
    19     7     8 1
    20     7     9 2
    21     8    42 1
    22     8    43 1
    23     9    10 1
    24     9    44 1
    25    10    11 1
    26    10    45 1
    27    10    46 1
    28    11    12 1
    29    11    47 1
    30    11    48 1
    31    12    13 1
    32    12    14 2
    33    13    49 1
    34    13    50 1
    35    13    51 1
    36    14    15 1
    37    14    52 1
    38    15    16 1
    39    15    53 1
    40    15    54 1
    41    16    17 1
    42    16    55 1
    43    16    56 1
    44    17    18 1
    45    17    19 2
    46    18    57 1
    47    18    58 1
    48    18    59 1
    49    19    20 1
    50    19    60 1
    51    20    21 1
    52    20    61 1
    53    20    62 1
    54    21    22 1
    55    22    23 1
    56    22    24 1
    57    22    25 1
    58    24    26 1
    59    26    27 1
    60    26    28 1
    61    26    29 1
@<TRIPOS>SUBSTRUCTURE
     1 GRG         1 TEMP              0 ****  ****    0 ROOT
