@<TRIPOS>MOLECULE
GRI
   30    31     1     0     0
SMALL
bcc


@<TRIPOS>ATOM
      1 CAA         0.3140    1.7030   -2.4560 c2        1 GRI     -0.244100
      2 OAB         7.1030    0.6140    4.1680 o         1 GRI     -0.815300
      3 OAC         3.6360   -0.3600   -5.6330 o         1 GRI     -0.578100
      4 OAD         9.0510    0.6470    3.0640 o         1 GRI     -0.815300
      5 CAE         7.8620    0.1750    0.6000 ca        1 GRI     -0.024000
      6 CAF         7.0650    0.2610    1.8030 ca        1 GRI     -0.125600
      7 CAG         1.8760   -0.0970   -3.5020 ce        1 GRI     -0.136100
      8 CAH         1.1030    0.8150   -2.9750 c1        1 GRI     -0.029800
      9 CAI         7.3080   -0.0320   -0.6160 ca        1 GRI     -0.209000
     10 NAK         5.3130   -0.2920   -1.9530 nd        1 GRI     -0.331600
     11 NAL         3.7570   -0.4310    0.4460 nd        1 GRI     -0.276600
     12 OAM         1.1860   -1.6680    0.2190 oh        1 GRI     -0.494100
     13 CAO         3.3090   -0.2230   -3.2750 ce        1 GRI     -0.226200
     14 CAP         1.9420   -1.3110   -0.8460 c2        1 GRI      0.134100
     15 CAQ         5.7230    0.1030    1.7520 ca        1 GRI     -0.124000
     16 CAR         5.8660   -0.1720   -0.7650 ca        1 GRI      0.071000
     17 CAS         3.9110   -0.3910   -2.0490 cd        1 GRI      0.236600
     18 CAT         5.0420   -0.1700    0.4910 ca        1 GRI      0.004000
     19 CAU         3.1690   -0.6970   -0.8040 cd        1 GRI     -0.058400
     20 HAA         1.6110   -1.3950    1.0500 ho        1 GRI      0.452000
     21 HAAA       -0.2570    1.5180   -1.5340 ha        1 GRI      0.126000
     22 HAAB        0.1770    2.6980   -2.9040 ha        1 GRI      0.126000
     23 HAE         8.9530    0.2940    0.7390 ha        1 GRI      0.174000
     24 HAF         5.1250    0.1700    2.6770 ha        1 GRI      0.174000
     25 HAG         1.4730   -0.7820   -4.2760 ha        1 GRI      0.150000
     26 HAH         1.4360   -1.6050   -1.7840 h4        1 GRI      0.180000
     27 HAI         7.9220   -0.0880   -1.5270 ha        1 GRI      0.138000
     28 HAJ         5.1830    0.1340   -4.3970 h4        1 GRI      0.023200
     29 CAN         7.7960    0.5290    3.1190 c         1 GRI      0.911200
     30 CAJ         4.1100   -0.1400   -4.5110 c         1 GRI      0.589100
@<TRIPOS>BOND
     1    1    8 2   
     2    1   21 1   
     3    1   22 1   
     4    2   29 1   
     5    3   30 2   
     6    4   29 1   
     7    5    6 ar  
     8    5    9 ar  
     9    5   23 1   
    10    6   15 ar  
    11    6   29 1   
    12    7    8 2   
    13    7   13 1   
    14    7   25 1   
    15    9   16 ar  
    16    9   27 1   
    17   10   16 2   
    18   10   17 1   
    19   11   18 2   
    20   11   19 1   
    21   12   14 1   
    22   12   20 1   
    23   13   17 2   
    24   13   30 1   
    25   14   19 2   
    26   14   26 1   
    27   15   18 ar  
    28   15   24 1   
    29   16   18 ar  
    30   17   19 1   
    31   28   30 1   
@<TRIPOS>SUBSTRUCTURE
     1 GRI         1 TEMP              0 ****  ****    0 ROOT
