@<TRIPOS>MOLECULE
molecule
   30    32     1     0     0
SMALL
bcc


@<TRIPOS>ATOM
      1 CAA          0.0000     0.0000     0.0000 c3         1 GRI       0.150700
      2 OAB          4.4410     0.0170     2.7770 o          1 GRI      -0.810800
      3 OAC          3.6280    -0.0590    -5.8120 o          1 GRI      -0.588100
      4 OAD          6.3710     0.0230     3.8740 o          1 GRI      -0.810800
      5 CAE          8.3920    -0.0120     0.1420 ca         1 GRI      -0.086000
      6 CAF          7.7290     0.0000     1.3630 ca         1 GRI      -0.146000
      7 CAG          2.1880    -0.0500    -3.4400 ca         1 GRI       0.030000
      8 CAH          1.4990    -0.0200    -2.2410 ca         1 GRI      -0.384000
      9 CAI          7.7350    -0.0190    -1.0460 ca         1 GRI      -0.233300
     10 NAK          5.6670    -0.0320    -2.2430 nb         1 GRI      -0.695000
     11 NAL          4.2560    -0.0040     0.1810 nb         1 GRI      -0.509000
     12 OAM          1.4290     0.0000     0.0000 os         1 GRI      -0.263900
     13 CAO          3.5780    -0.0460    -3.4920 ca         1 GRI      -0.340900
     14 CAP          2.1420    -0.0100    -1.0230 ca         1 GRI       0.233800
     15 CAQ          6.3450     0.0030     1.4310 ca         1 GRI      -0.086900
     16 CAR          6.3230    -0.0230    -1.0860 ca         1 GRI       0.339300
     17 CAS          4.3430    -0.0360    -2.2400 ca         1 GRI       0.382300
     18 CAT          5.5820    -0.0060     0.1790 ca         1 GRI       0.285300
     19 CAU          3.6030    -0.0120    -0.9740 ca         1 GRI       0.232300
     20 HAA         -0.3610    -0.8900    -0.5010 h1         1 GRI       0.046367
     21 HAAA        -0.3610     0.0120     1.0210 h1         1 GRI       0.046367
     22 HAAB        -0.3610     0.8790    -0.5210 h1         1 GRI       0.046367
     23 HAE          9.4750    -0.0130     0.1370 ha         1 GRI       0.113000
     24 HAF          8.3060     0.0050     2.2800 ha         1 GRI       0.166000
     25 HAG          1.6280    -0.0560    -4.3670 ha         1 GRI       0.137000
     26 HAH          0.4150    -0.0240    -2.2600 ha         1 GRI       0.127000
     27 HAI          8.2980    -0.0280    -1.9720 ha         1 GRI       0.128000
     28 HAJ          5.3510    -0.0480    -4.8160 h4         1 GRI       0.012200
     29 CAN          5.6550     0.0150     2.7330 c          1 GRI       0.872200
     30 CAJ          4.2680    -0.0510    -4.7820 c          1 GRI       0.606500
@<TRIPOS>BOND
     1    12     1 1
     2     1    20 1
     3     1    21 1
     4     1    22 1
     5     2    29 1
     6     3    30 2
     7    29     4 1
     8     6     5 ar
     9     5     9 ar
    10     5    23 1
    11     6    15 ar
    12     6    24 1
    13    13     7 ar
    14     8     7 ar
    15     7    25 1
    16    14     8 ar
    17     8    26 1
    18     9    16 ar
    19     9    27 1
    20    13    30 1
    21    30    28 1
    22    16    10 ar
    23    10    17 ar
    24    18    11 ar
    25    11    19 ar
    26    12    14 1
    27    29    15 1
    28    17    13 ar
    29    19    14 ar
    30    15    18 ar
    31    18    16 ar
    32    19    17 ar
@<TRIPOS>SUBSTRUCTURE
     1 GRI         1 TEMP              0 ****  ****    0 ROOT
