@<TRIPOS>MOLECULE
molecule
   38    39     1     0     0
SMALL
bcc


@<TRIPOS>ATOM
      1 C8           0.0000     0.0000     0.0000 ca         1 GRK       0.131100
      2 C5           1.3870    -0.0020     2.4030 ca         1 GRK      -0.161600
      3 C6           2.0820     0.0000     1.1910 ca         1 GRK      -0.088000
      4 C10         -0.0100    -0.0030     2.4060 ca         1 GRK      -0.033000
      5 C12          0.1010     0.0080    -2.3740 c3         1 GRK       0.129700
      6 C14         -2.7760     0.6610     2.1650 c          1 GRK       0.654100
      7 C16         -4.2800     0.7450     2.1060 c3         1 GRK      -0.106100
      8 C17         -4.7850     1.5340     3.2860 ca         1 GRK      -0.072300
      9 C18         -5.0930     0.8880     4.4700 ca         1 GRK      -0.108000
     10 C19         -5.5560     1.6120     5.5520 ca         1 GRK      -0.125000
     11 C20         -5.7110     2.9820     5.4520 ca         1 GRK      -0.122000
     12 C21         -5.4020     3.6280     4.2700 ca         1 GRK      -0.125000
     13 C22         -4.9350     2.9040     3.1890 ca         1 GRK      -0.108000
     14 C3           2.1300    -0.0030     3.6790 c          1 GRK       0.690700
     15 C7           1.3890     0.0000     0.0000 ca         1 GRK      -0.216000
     16 C9          -0.7000    -0.0030     1.2070 ca         1 GRK       0.023600
     17 N13         -2.1010    -0.0030     1.2050 ns         1 GRK      -0.475100
     18 N2           3.4770    -0.0030     3.6770 ns         1 GRK      -0.474400
     19 O1           4.1880    -0.0040     4.9000 oh         1 GRK      -0.359100
     20 O11         -0.6770     0.0060    -1.1760 os         1 GRK      -0.332900
     21 O15         -2.1740     1.1890     3.0750 o          1 GRK      -0.573100
     22 O4           1.5240    -0.0050     4.7340 o          1 GRK      -0.567100
     23 H1           3.1650     0.0000     1.1870 ha         1 GRK       0.121000
     24 H2          -0.5510    -0.0040     3.3440 ha         1 GRK       0.201000
     25 H3           0.7250    -0.8780    -2.4010 h1         1 GRK       0.044367
     26 H4           0.7280     0.8910    -2.3960 h1         1 GRK       0.044367
     27 H5          -0.5580     0.0110    -3.2330 h1         1 GRK       0.044367
     28 H6          -4.5790     1.2370     1.1880 hc         1 GRK       0.067200
     29 H7          -4.6990    -0.2540     2.1340 hc         1 GRK       0.067200
     30 H8          -4.9720    -0.1850     4.5480 ha         1 GRK       0.128000
     31 H9          -5.7970     1.1050     6.4780 ha         1 GRK       0.129500
     32 H10         -6.0760     3.5490     6.3000 ha         1 GRK       0.128000
     33 H11         -5.5220     4.7020     4.1920 ha         1 GRK       0.129500
     34 H12         -4.6930     3.4110     2.2620 ha         1 GRK       0.128000
     35 H13          1.9290     0.0020    -0.9390 ha         1 GRK       0.140000
     36 H14         -2.6000    -0.5220     0.5110 hn         1 GRK       0.331500
     37 H15          3.9750    -0.0010     2.8080 hn         1 GRK       0.317500
     38 H16          5.1150    -0.0030     4.7250 ho         1 GRK       0.396000
@<TRIPOS>BOND
     1     5    20 1
     2    15     3 ar
     3    15     1 ar
     4     3     2 ar
     5    20     1 1
     6     1    16 ar
     7    18    19 1
     8    18    14 1
     9     2    14 1
    10     2     4 ar
    11    16     4 ar
    12    16    17 1
    13    14    22 2
    14    17     6 1
    15    21     6 2
    16     6     7 1
    17     7     8 1
    18     9     8 ar
    19     9    10 ar
    20     8    13 ar
    21    10    11 ar
    22    13    12 ar
    23    11    12 ar
    24     3    23 1
    25     4    24 1
    26     5    25 1
    27     5    26 1
    28     5    27 1
    29     7    28 1
    30     7    29 1
    31     9    30 1
    32    10    31 1
    33    11    32 1
    34    12    33 1
    35    13    34 1
    36    15    35 1
    37    17    36 1
    38    18    37 1
    39    19    38 1
@<TRIPOS>SUBSTRUCTURE
     1 GRK         1 TEMP              0 ****  ****    0 ROOT
