@<TRIPOS>MOLECULE
GRK
   38    39     1     0     0
SMALL
bcc


@<TRIPOS>ATOM
      1 C8           0.0000     0.0000     0.0000 ca         1 GRK       0.142100
      2 C5           1.3870    -0.0020     2.4030 ca         1 GRK      -0.175600
      3 C6           2.0820     0.0000     1.1910 ca         1 GRK      -0.060000
      4 C10         -0.0100    -0.0030     2.4060 ca         1 GRK      -0.004000
      5 C12          0.1010     0.0080    -2.3740 c3         1 GRK       0.248700
      6 C14         -2.7760     0.6610     2.1650 c          1 GRK       0.553100
      7 C16         -4.2800     0.7450     2.1060 c3         1 GRK      -0.036100
      8 C17         -4.7850     1.5340     3.2860 ca         1 GRK      -0.073300
      9 C18         -5.0930     0.8880     4.4700 ca         1 GRK      -0.083500
     10 C19         -5.5560     1.6120     5.5520 ca         1 GRK      -0.098000
     11 C20         -5.7110     2.9820     5.4520 ca         1 GRK      -0.098000
     12 C21         -5.4020     3.6280     4.2700 ca         1 GRK      -0.098000
     13 C22         -4.9350     2.9040     3.1890 ca         1 GRK      -0.083500
     14 C3           2.1300    -0.0030     3.6790 c          1 GRK       0.598700
     15 C7           1.3890     0.0000     0.0000 ca         1 GRK      -0.204000
     16 C9          -0.7000    -0.0030     1.2070 ca         1 GRK      -0.131400
     17 N13         -2.1010    -0.0030     1.2050 ns         1 GRK      -0.032100
     18 N2           3.4770    -0.0030     3.6770 ns         1 GRK      -0.065400
     19 O1           4.1880    -0.0040     4.9000 oh         1 GRK      -0.436100
     20 O11         -0.6770     0.0060    -1.1760 os         1 GRK      -0.314900
     21 O15         -2.1740     1.1890     3.0750 o          1 GRK      -0.612100
     22 O4           1.5240    -0.0050     4.7340 o          1 GRK      -0.612100
     23 H1           3.1650     0.0000     1.1870 ha         1 GRK       0.096000
     24 H2          -0.5510    -0.0040     3.3440 ha         1 GRK       0.173000
     25 H3           0.7250    -0.8780    -2.4010 h1         1 GRK      -0.000633
     26 H4           0.7280     0.8910    -2.3960 h1         1 GRK      -0.000633
     27 H5          -0.5580     0.0110    -3.2330 h1         1 GRK      -0.000633
     28 H6          -4.5790     1.2370     1.1880 hc         1 GRK       0.030700
     29 H7          -4.6990    -0.2540     2.1340 hc         1 GRK       0.030700
     30 H8          -4.9720    -0.1850     4.5480 ha         1 GRK       0.101500
     31 H9          -5.7970     1.1050     6.4780 ha         1 GRK       0.101000
     32 H10         -6.0760     3.5490     6.3000 ha         1 GRK       0.100000
     33 H11         -5.5220     4.7020     4.1920 ha         1 GRK       0.101000
     34 H12         -4.6930     3.4110     2.2620 ha         1 GRK       0.101500
     35 H13          1.9290     0.0020    -0.9390 ha         1 GRK       0.122000
     36 H14         -2.6000    -0.5220     0.5110 hn         1 GRK       0.172500
     37 H15          3.9750    -0.0010     2.8080 hn         1 GRK       0.158500
     38 H16          5.1150    -0.0030     4.7250 ho         1 GRK       0.389000
@<TRIPOS>BOND
     1     1    15 ar  
     2     1    16 ar  
     3     1    20 1   
     4     2     3 ar  
     5     2     4 ar  
     6     2    14 1   
     7     3    15 ar  
     8     3    23 1   
     9     4    16 ar  
    10     4    24 1   
    11     5    20 1   
    12     5    25 1   
    13     5    26 1   
    14     5    27 1   
    15     6     7 1   
    16     6    17 1   
    17     6    21 2   
    18     7     8 1   
    19     7    28 1   
    20     7    29 1   
    21     8     9 ar  
    22     8    13 ar  
    23     9    10 ar  
    24     9    30 1   
    25    10    11 ar  
    26    10    31 1   
    27    11    12 ar  
    28    11    32 1   
    29    12    13 ar  
    30    12    33 1   
    31    13    34 1   
    32    14    18 1   
    33    14    22 2   
    34    15    35 1   
    35    16    17 1   
    36    17    36 1   
    37    18    19 1   
    38    18    37 1   
    39    19    38 1   
@<TRIPOS>SUBSTRUCTURE
     1 GRK         1 TEMP              0 ****  ****    0 ROOT
