@<TRIPOS>MOLECULE
GRM
   59    63     1     0     0
SMALL
bcc


@<TRIPOS>ATOM
      1 C1           1.5300     0.0000     0.0000 c3         1 GRM       0.183800
      2 C2           0.0000     0.0000     0.0000 c3         1 GRM      -0.004100
      3 C3           2.0320     0.0000     1.4220 ca         1 GRM      -0.079300
      4 N4           2.0200     1.1990    -0.6930 n3         1 GRM      -0.535600
      5 C5           1.5500     1.2320    -2.0830 c3         1 GRM       0.116300
      6 C6           1.9550     2.5600    -2.7280 c3         1 GRM      -0.006400
      7 C7           3.4800     2.6990    -2.6820 c3         1 GRM      -0.122700
      8 C8           3.9480     2.6120    -1.2270 c3         1 GRM      -0.006400
      9 C9           3.4840     1.2830    -0.6250 c3         1 GRM       0.116300
     10 C10          4.1110     1.5880    -3.4820 c          1 GRM       0.578100
     11 O11          3.4120     0.7660    -4.0350 o          1 GRM      -0.651100
     12 N12          5.4540     1.5100    -3.5830 ns         1 GRM      -0.201900
     13 C13          6.0680     0.4310    -4.3600 c3         1 GRM       0.116300
     14 C14          7.5670     0.5690    -4.3130 ca         1 GRM      -0.128300
     15 C15          8.2870    -0.0540    -3.3110 ca         1 GRM      -0.071000
     16 C16          9.6660     0.0710    -3.2670 ca         1 GRM       0.055100
     17 C17         10.3240     0.8270    -4.2340 ca         1 GRM       0.065100
     18 C18          9.5970     1.4500    -5.2350 ca         1 GRM      -0.089000
     19 C19          8.2210     1.3160    -5.2760 ca         1 GRM      -0.084000
     20 O20         10.5940    -0.4330    -2.4010 os         1 GRM      -0.312900
     21 C21         11.8580    -0.3160    -3.0810 c3         1 GRM       0.432200
     22 O22         11.6640     0.7970    -3.9740 os         1 GRM      -0.313900
     23 C23          2.1670    -1.2100     2.1230 ca         1 GRM      -0.025000
     24 C24          2.6410    -1.1890     3.4590 ca         1 GRM      -0.036000
     25 C25          2.9670     0.0400     4.0550 ca         1 GRM      -0.092000
     26 C26          2.8240     1.1930     3.3440 ca         1 GRM      -0.102000
     27 C27          2.3620     1.1720     2.0300 ca         1 GRM      -0.099000
     28 C28          1.8420    -2.4400     1.5260 ca         1 GRM      -0.101000
     29 C29          1.9840    -3.5910     2.2370 ca         1 GRM      -0.098000
     30 C30          2.4500    -3.5720     3.5510 ca         1 GRM      -0.103000
     31 C31          2.7760    -2.3990     4.1610 ca         1 GRM      -0.086000
     32 H1           1.8910    -0.8850    -0.5100 h1         1 GRM       0.020700
     33 H2          -0.3610    -0.4980     0.8910 hc         1 GRM       0.013033
     34 H2A         -0.3610    -0.5230    -0.8770 hc         1 GRM       0.013033
     35 H2B         -0.3610     1.0210    -0.0140 hc         1 GRM       0.013033
     36 H5           1.9970     0.4130    -2.6340 h1         1 GRM       0.031700
     37 H5A          0.4710     1.1390    -2.1000 h1         1 GRM       0.031700
     38 H6           1.5020     3.3790    -2.1830 hc         1 GRM       0.021950
     39 H6A          1.6230     2.5760    -3.7590 hc         1 GRM       0.021950
     40 H7           3.7670     3.6580    -3.0970 hc         1 GRM       0.035700
     41 H8           5.0290     2.6660    -1.1920 hc         1 GRM       0.021950
     42 H8A          3.5220     3.4320    -0.6620 hc         1 GRM       0.021950
     43 H9           3.8010     1.2270     0.4090 h1         1 GRM       0.031700
     44 H9A          3.9180     0.4640    -1.1860 h1         1 GRM       0.031700
     45 HN12         6.0290     2.2100    -3.1580 hn         1 GRM       0.181500
     46 H13          5.7800    -0.5260    -3.9410 h1         1 GRM       0.029200
     47 H13A         5.7320     0.4900    -5.3880 h1         1 GRM       0.029200
     48 H15          7.7730    -0.6420    -2.5610 ha         1 GRM       0.118000
     49 H18         10.1060     2.0360    -5.9900 ha         1 GRM       0.115000
     50 H19          7.6560     1.7830    -6.0730 ha         1 GRM       0.114000
     51 H21         12.0520    -1.2160    -3.6520 h2         1 GRM       0.016200
     52 H21A        12.6390    -0.0840    -2.3680 h2         1 GRM       0.016200
     53 H25          3.3270     0.0710     5.0760 ha         1 GRM       0.105000
     54 H26          3.0800     2.1390     3.8050 ha         1 GRM       0.101000
     55 H27          2.2570     2.1030     1.4870 ha         1 GRM       0.130000
     56 H28          1.4780    -2.4710     0.5060 ha         1 GRM       0.115000
     57 H29          1.7320    -4.5380     1.7740 ha         1 GRM       0.100000
     58 H30          2.5540    -4.5030     4.0940 ha         1 GRM       0.100000
     59 H31          3.1370    -2.3990     5.1820 ha         1 GRM       0.105000
@<TRIPOS>BOND
     1     1     2 1   
     2     1     3 1   
     3     1     4 1   
     4     1    32 1   
     5     2    33 1   
     6     2    34 1   
     7     2    35 1   
     8     3    23 ar  
     9     3    27 ar  
    10     4     5 1   
    11     4     9 1   
    12     5     6 1   
    13     5    36 1   
    14     5    37 1   
    15     6     7 1   
    16     6    38 1   
    17     6    39 1   
    18     7     8 1   
    19     7    10 1   
    20     7    40 1   
    21     8     9 1   
    22     8    41 1   
    23     8    42 1   
    24     9    43 1   
    25     9    44 1   
    26    10    11 2   
    27    10    12 1   
    28    12    13 1   
    29    12    45 1   
    30    13    14 1   
    31    13    46 1   
    32    13    47 1   
    33    14    15 ar  
    34    14    19 ar  
    35    15    16 ar  
    36    15    48 1   
    37    16    17 ar  
    38    16    20 1   
    39    17    18 ar  
    40    17    22 1   
    41    18    19 ar  
    42    18    49 1   
    43    19    50 1   
    44    20    21 1   
    45    21    22 1   
    46    21    51 1   
    47    21    52 1   
    48    23    24 ar  
    49    23    28 ar  
    50    24    25 ar  
    51    24    31 ar  
    52    25    26 ar  
    53    25    53 1   
    54    26    27 ar  
    55    26    54 1   
    56    27    55 1   
    57    28    29 ar  
    58    28    56 1   
    59    29    30 ar  
    60    29    57 1   
    61    30    31 ar  
    62    30    58 1   
    63    31    59 1   
@<TRIPOS>SUBSTRUCTURE
     1 GRM         1 TEMP              0 ****  ****    0 ROOT
