@<TRIPOS>MOLECULE
molecule
   59    63     1     0     0
SMALL
bcc


@<TRIPOS>ATOM
      1 C1           1.5300     0.0000     0.0000 c3         1 GRM       0.216800
      2 C2           0.0000     0.0000     0.0000 c3         1 GRM      -0.088100
      3 C3           2.0320     0.0000     1.4220 ca         1 GRM      -0.075300
      4 N4           2.0200     1.1990    -0.6930 n3         1 GRM      -0.733600
      5 C5           1.5500     1.2320    -2.0830 c3         1 GRM       0.149300
      6 C6           1.9550     2.5600    -2.7280 c3         1 GRM      -0.062900
      7 C7           3.4800     2.6990    -2.6820 c3         1 GRM      -0.147700
      8 C8           3.9480     2.6120    -1.2270 c3         1 GRM      -0.062900
      9 C9           3.4840     1.2830    -0.6250 c3         1 GRM       0.149300
     10 C10          4.1110     1.5880    -3.4820 c          1 GRM       0.662100
     11 O11          3.4120     0.7660    -4.0350 o          1 GRM      -0.614100
     12 N12          5.4540     1.5100    -3.5830 ns         1 GRM      -0.585900
     13 C13          6.0680     0.4310    -4.3600 c3         1 GRM       0.165300
     14 C14          7.5670     0.5690    -4.3130 ca         1 GRM      -0.117300
     15 C15          8.2870    -0.0540    -3.3110 ca         1 GRM      -0.098000
     16 C16          9.6660     0.0710    -3.2670 ca         1 GRM       0.046100
     17 C17         10.3240     0.8270    -4.2340 ca         1 GRM       0.057100
     18 C18          9.5970     1.4500    -5.2350 ca         1 GRM      -0.117000
     19 C19          8.2210     1.3160    -5.2760 ca         1 GRM      -0.111000
     20 O20         10.5940    -0.4330    -2.4010 os         1 GRM      -0.325900
     21 C21         11.8580    -0.3160    -3.0810 c3         1 GRM       0.331200
     22 O22         11.6640     0.7970    -3.9740 os         1 GRM      -0.325900
     23 C23          2.1670    -1.2100     2.1230 ca         1 GRM      -0.030000
     24 C24          2.6410    -1.1890     3.4590 ca         1 GRM      -0.036000
     25 C25          2.9670     0.0400     4.0550 ca         1 GRM      -0.119000
     26 C26          2.8240     1.1930     3.3440 ca         1 GRM      -0.131000
     27 C27          2.3620     1.1720     2.0300 ca         1 GRM      -0.113000
     28 C28          1.8420    -2.4400     1.5260 ca         1 GRM      -0.121000
     29 C29          1.9840    -3.5910     2.2370 ca         1 GRM      -0.126000
     30 C30          2.4500    -3.5720     3.5510 ca         1 GRM      -0.129000
     31 C31          2.7760    -2.3990     4.1610 ca         1 GRM      -0.115000
     32 H1           1.8910    -0.8850    -0.5100 h1         1 GRM       0.035700
     33 H2          -0.3610    -0.4980     0.8910 hc         1 GRM       0.043700
     34 H2A         -0.3610    -0.5230    -0.8770 hc         1 GRM       0.043700
     35 H2B         -0.3610     1.0210    -0.0140 hc         1 GRM       0.043700
     36 H5           1.9970     0.4130    -2.6340 h1         1 GRM       0.051200
     37 H5A          0.4710     1.1390    -2.1000 h1         1 GRM       0.051200
     38 H6           1.5020     3.3790    -2.1830 hc         1 GRM       0.052450
     39 H6A          1.6230     2.5760    -3.7590 hc         1 GRM       0.052450
     40 H7           3.7670     3.6580    -3.0970 hc         1 GRM       0.064700
     41 H8           5.0290     2.6660    -1.1920 hc         1 GRM       0.052450
     42 H8A          3.5220     3.4320    -0.6620 hc         1 GRM       0.052450
     43 H9           3.8010     1.2270     0.4090 h1         1 GRM       0.051200
     44 H9A          3.9180     0.4640    -1.1860 h1         1 GRM       0.051200
     45 HN12         6.0290     2.2100    -3.1580 hn         1 GRM       0.319500
     46 H13          5.7800    -0.5260    -3.9410 h1         1 GRM       0.060200
     47 H13A         5.7320     0.4900    -5.3880 h1         1 GRM       0.060200
     48 H15          7.7730    -0.6420    -2.5610 ha         1 GRM       0.150000
     49 H18         10.1060     2.0360    -5.9900 ha         1 GRM       0.147000
     50 H19          7.6560     1.7830    -6.0730 ha         1 GRM       0.145000
     51 H21         12.0520    -1.2160    -3.6520 h2         1 GRM       0.073200
     52 H21A        12.6390    -0.0840    -2.3680 h2         1 GRM       0.073200
     53 H25          3.3270     0.0710     5.0760 ha         1 GRM       0.131000
     54 H26          3.0800     2.1390     3.8050 ha         1 GRM       0.127000
     55 H27          2.2570     2.1030     1.4870 ha         1 GRM       0.152000
     56 H28          1.4780    -2.4710     0.5060 ha         1 GRM       0.136000
     57 H29          1.7320    -4.5380     1.7740 ha         1 GRM       0.127000
     58 H30          2.5540    -4.5030     4.0940 ha         1 GRM       0.127000
     59 H31          3.1370    -2.3990     5.1820 ha         1 GRM       0.131000
@<TRIPOS>BOND
     1     1     2 1
     2     1     3 1
     3     1     4 1
     4     3    23 ar
     5     3    27 ar
     6     4     5 1
     7     4     9 1
     8     5     6 1
     9     6     7 1
    10     7     8 1
    11     7    10 1
    12     8     9 1
    13    10    11 2
    14    10    12 1
    15    12    13 1
    16    13    14 1
    17    14    15 ar
    18    14    19 ar
    19    15    16 ar
    20    16    17 ar
    21    16    20 1
    22    17    18 ar
    23    17    22 1
    24    18    19 ar
    25    20    21 1
    26    21    22 1
    27    23    24 ar
    28    23    28 ar
    29    24    25 ar
    30    24    31 ar
    31    25    26 ar
    32    26    27 ar
    33    28    29 ar
    34    29    30 ar
    35    30    31 ar
    36     1    32 1
    37     2    33 1
    38     2    34 1
    39     2    35 1
    40     5    36 1
    41     5    37 1
    42     6    38 1
    43     6    39 1
    44     7    40 1
    45     8    41 1
    46     8    42 1
    47     9    43 1
    48     9    44 1
    49    12    45 1
    50    13    46 1
    51    13    47 1
    52    15    48 1
    53    18    49 1
    54    19    50 1
    55    21    51 1
    56    21    52 1
    57    25    53 1
    58    26    54 1
    59    27    55 1
    60    28    56 1
    61    29    57 1
    62    30    58 1
    63    31    59 1
@<TRIPOS>SUBSTRUCTURE
     1 GRM         1 TEMP              0 ****  ****    0 ROOT
