@<TRIPOS>MOLECULE
GRN
   23    23     1     0     0
SMALL
bcc


@<TRIPOS>ATOM
      1 O            0.0000     0.0000     0.0000 o          1 GRN      -0.805800
      2 C            1.2090     0.0000     0.0000 c          1 GRN       0.945600
      3 CA           1.9620     0.0000     1.3060 c3         1 GRN      -0.150500
      4 C1           2.3250     1.4370     1.6860 c3         1 GRN       0.006900
      5 N            3.1890    -0.7940     1.1630 nz         1 GRN       0.076400
      6 CB           1.0980    -0.6020     2.3840 ca         1 GRN      -0.182300
      7 CG2          1.1400    -1.9630     2.6240 ca         1 GRN      -0.063500
      8 CD2         -0.5380    -0.3470     4.1130 ca         1 GRN      -0.072500
      9 CE          -0.4960    -1.7070     4.3540 ca         1 GRN      -0.172000
     10 CD1          0.3420    -2.5160     3.6090 ca         1 GRN      -0.072500
     11 CG1          0.2580     0.2060     3.1280 ca         1 GRN      -0.063500
     12 O1           1.8800    -0.0040    -1.1620 o          1 GRN      -0.805800
     13 H1           2.6220     1.4700     2.7280 hc         1 GRN       0.030367
     14 H2           3.1450     1.7780     1.0660 hc         1 GRN       0.030367
     15 H3           1.4660     2.0790     1.5350 hc         1 GRN       0.030367
     16 H4           3.8620    -0.2760     0.6330 hn         1 GRN       0.219800
     17 H5           2.9790    -1.6510     0.6900 hn         1 GRN       0.219800
     18 H7           1.8800    -2.0790     1.8420 ha         1 GRN       0.117000
     19 H8          -1.2780    -0.2320     4.8960 ha         1 GRN       0.133000
     20 H9          -1.1200    -2.1390     5.1270 ha         1 GRN       0.108000
     21 H10          0.0000    -3.3810     4.1630 ha         1 GRN       0.133000
     22 H11          0.5990     1.0710     2.5730 ha         1 GRN       0.117000
     23 HN3          3.6220    -0.9030     2.0590 hn         1 GRN       0.219800
@<TRIPOS>BOND
     1     1     2 1   
     2     2     3 1   
     3     2    12 1   
     4     3     4 1   
     5     3     5 1   
     6     3     6 1   
     7     4    13 1   
     8     4    14 1   
     9     4    15 1   
    10     5    16 1   
    11     5    17 1   
    12     5    23 1   
    13     6     7 ar  
    14     6    11 ar  
    15     7    10 ar  
    16     7    18 1   
    17     8     9 ar  
    18     8    11 ar  
    19     8    19 1   
    20     9    10 ar  
    21     9    20 1   
    22    10    21 1   
    23    11    22 1   
@<TRIPOS>SUBSTRUCTURE
     1 GRN         1 TEMP              0 ****  ****    0 ROOT
