@<TRIPOS>MOLECULE
molecule
   23    23     1     0     0
SMALL
bcc


@<TRIPOS>ATOM
      1 O            0.0000     0.0000     0.0000 o          1 GRN      -0.764300
      2 C            1.2090     0.0000     0.0000 c          1 GRN       0.865600
      3 CA           1.9620     0.0000     1.3060 c3         1 GRN       0.040500
      4 C1           2.3250     1.4370     1.6860 c3         1 GRN      -0.101100
      5 N            3.1890    -0.7940     1.1630 nz         1 GRN      -0.787600
      6 CB           1.0980    -0.6020     2.3840 ca         1 GRN      -0.159300
      7 CG2          1.1400    -1.9630     2.6240 ca         1 GRN      -0.091000
      8 CD2         -0.5380    -0.3470     4.1130 ca         1 GRN      -0.109500
      9 CE          -0.4960    -1.7070     4.3540 ca         1 GRN      -0.179000
     10 CD1          0.3420    -2.5160     3.6090 ca         1 GRN      -0.109500
     11 CG1          0.2580     0.2060     3.1280 ca         1 GRN      -0.091000
     12 O1           1.8800    -0.0040    -1.1620 o          1 GRN      -0.764300
     13 H1           2.6220     1.4700     2.7280 hc         1 GRN       0.064033
     14 H2           3.1450     1.7780     1.0660 hc         1 GRN       0.064033
     15 H3           1.4660     2.0790     1.5350 hc         1 GRN       0.064033
     16 H4           3.8620    -0.2760     0.6330 hn         1 GRN       0.444133
     17 H5           2.9790    -1.6510     0.6900 hn         1 GRN       0.444133
     18 H7           1.8800    -2.0790     1.8420 ha         1 GRN       0.137000
     19 H8          -1.2780    -0.2320     4.8960 ha         1 GRN       0.159500
     20 H9          -1.1200    -2.1390     5.1270 ha         1 GRN       0.133000
     21 H10          0.0000    -3.3810     4.1630 ha         1 GRN       0.159500
     22 H11          0.5990     1.0710     2.5730 ha         1 GRN       0.137000
     23 HN3          3.6220    -0.9030     2.0590 hn         1 GRN       0.444133
@<TRIPOS>BOND
     1     8     9 ar
     2     8     7 ar
     3     9    10 ar
     4     7     6 ar
     5    10    11 ar
     6     6    11 ar
     7     6     3 1
     8     5     3 1
     9     3     4 1
    10     3     2 1
    11     2     1 1
    12     2    12 1
    13     4    13 1
    14     4    14 1
    15     4    15 1
    16     5    16 1
    17     5    17 1
    18     7    18 1
    19     8    19 1
    20     9    20 1
    21    10    21 1
    22    11    22 1
    23    23     5 1
@<TRIPOS>SUBSTRUCTURE
     1 GRN         1 TEMP              0 ****  ****    0 ROOT
