@<TRIPOS>MOLECULE
molecule
   20    20     1     0     0
SMALL
bcc


@<TRIPOS>ATOM
      1 O2           0.0000     0.0000     0.0000 o          1 GRO      -0.843800
      2 C1           1.3430     0.0000     0.0000 c          1 GRO       0.894600
      3 O1           1.9470     0.0010    -1.0470 o          1 GRO      -0.843800
      4 C2           2.0960     0.0000     1.3040 c3         1 GRO      -0.142400
      5 C3           1.7260     1.2480     2.1070 c3         1 GRO      -0.059100
      6 C1'          3.5770     0.0010     1.0290 ca         1 GRO      -0.015300
      7 C6'          4.3660    -1.0350     1.4900 ca         1 GRO      -0.111000
      8 C5'          5.7250    -1.0340     1.2370 ca         1 GRO      -0.145500
      9 C4'          6.2940     0.0020     0.5230 ca         1 GRO      -0.161000
     10 C3'          5.5050     1.0390     0.0600 ca         1 GRO      -0.145500
     11 C2'          4.1450     1.0350     0.3100 ca         1 GRO      -0.111000
     12 HC2          1.8350    -0.8850     1.8720 hc         1 GRO       0.045700
     13 HC31         0.7410     1.1200     2.5400 hc         1 GRO       0.021367
     14 HC32         1.7230     2.1110     1.4520 hc         1 GRO       0.021367
     15 HC33         2.4510     1.3970     2.8970 hc         1 GRO       0.021367
     16 HC6'         3.9200    -1.8480     2.0500 ha         1 GRO       0.130000
     17 HC5'         6.3440    -1.8470     1.5990 ha         1 GRO       0.105500
     18 HC4'         7.3600     0.0040     0.3260 ha         1 GRO       0.101000
     19 HC3'         5.9500     1.8500    -0.5020 ha         1 GRO       0.105500
     20 HC2'         3.5260     1.8470    -0.0520 ha         1 GRO       0.130000
@<TRIPOS>BOND
     1     1     2 1
     2     2     3 1
     3     2     4 1
     4     4     5 1
     5     4     6 1
     6     4    12 1
     7     5    13 1
     8     5    14 1
     9     5    15 1
    10     6     7 ar
    11     6    11 ar
    12     7     8 ar
    13     7    16 1
    14     8     9 ar
    15     8    17 1
    16     9    10 ar
    17     9    18 1
    18    10    11 ar
    19    10    19 1
    20    11    20 1
@<TRIPOS>SUBSTRUCTURE
     1 GRO         1 TEMP              0 ****  ****    0 ROOT
