@<TRIPOS>MOLECULE
GRO
   20    20     1     0     0
SMALL
bcc


@<TRIPOS>ATOM
      1 O2          0.4550   -0.7520   -0.2100 o         1 GRO     -0.837300
      2 C1          1.2370    0.2120    0.0130 c         1 GRO      0.922600
      3 O1          1.3460    1.2310   -0.7260 o         1 GRO     -0.837300
      4 C2          2.0950    0.1400    1.3130 c3        1 GRO     -0.166400
      5 C3          1.8290    1.3780    2.1430 c3        1 GRO     -0.061100
      6 C1'         3.5490    0.0040    1.0170 ca        1 GRO     -0.014300
      7 C6'         4.3250   -0.9560    1.6810 ca        1 GRO     -0.133500
      8 C5'         5.6900   -1.0690    1.4200 ca        1 GRO     -0.147500
      9 C4'         6.2980   -0.2270    0.4920 ca        1 GRO     -0.166000
     10 C3'         5.5300    0.7240   -0.1830 ca        1 GRO     -0.147500
     11 C2'         4.1670    0.8400    0.0740 ca        1 GRO     -0.133500
     12 HC2         1.7500   -0.7660    1.8850 hc        1 GRO      0.043700
     13 HC31        2.0680    2.2910    1.5450 hc        1 GRO      0.019700
     14 HC32        0.7500    1.4150    2.4270 hc        1 GRO      0.019700
     15 HC33        2.4440    1.3810    3.0750 hc        1 GRO      0.019700
     16 HC6'        3.8500   -1.6300    2.4080 ha        1 GRO      0.151500
     17 HC5'        6.2860   -1.8270    1.9460 ha        1 GRO      0.106500
     18 HC4'        7.3730   -0.3150    0.2870 ha        1 GRO      0.103000
     19 HC3'        6.0030    1.3810   -0.9270 ha        1 GRO      0.106500
     20 HC2'        3.5330    1.5620   -0.4750 ha        1 GRO      0.151500
@<TRIPOS>BOND
     1    1    2 1   
     2    2    3 1   
     3    2    4 1   
     4    4    5 1   
     5    4    6 1   
     6    4   12 1   
     7    5   13 1   
     8    5   14 1   
     9    5   15 1   
    10    6    7 ar  
    11    6   11 ar  
    12    7    8 ar  
    13    7   16 1   
    14    8    9 ar  
    15    8   17 1   
    16    9   10 ar  
    17    9   18 1   
    18   10   11 ar  
    19   10   19 1   
    20   11   20 1   
@<TRIPOS>SUBSTRUCTURE
     1 GRO         1 TEMP              0 ****  ****    0 ROOT
