@<TRIPOS>MOLECULE
molecule
   27    26     1     0     0
SMALL
bcc


@<TRIPOS>ATOM
      1 C1           0.0000     0.0000     0.0000 c2         1 GRQ       0.031600
      2 C2           1.3100     0.0000     0.0000 c2         1 GRQ      -0.521200
      3 C3           2.0640     0.0000     1.3040 c3         1 GRQ      -0.091200
      4 C4           3.0350    -1.1820     1.3310 c3         1 GRQ      -0.074200
      5 C5           3.7900    -1.1820     2.6370 c2         1 GRQ      -0.058400
      6 C6           3.3570    -1.9250     3.6570 ce         1 GRQ      -0.286200
      7 C7           4.0890    -1.9260     4.9240 c          1 GRQ       0.564100
      8 C8           5.0330    -0.3430     2.7890 c3         1 GRQ      -0.069900
      9 C9          -0.7530    -0.0010     1.3050 c3         1 GRQ      -0.096400
     10 O            3.6950    -2.6010     5.8510 o          1 GRQ      -0.523100
     11 C           -0.7540     0.0070    -1.3050 c3         1 GRQ      -0.096400
     12 H1           1.4550    -0.8750     0.6230 ha         1 GRQ       0.343000
     13 H2           1.3640    -0.0890     2.1260 hc         1 GRQ       0.062700
     14 H3           2.6180     0.9260     1.4010 hc         1 GRQ       0.062700
     15 H4           2.4810    -2.1080     1.2350 hc         1 GRQ       0.066700
     16 H5           3.7350    -1.0930     0.5090 hc         1 GRQ       0.066700
     17 H6           2.4630    -2.5280     3.5480 ha         1 GRQ       0.147000
     18 H7           4.9900    -1.3340     5.0290 h4         1 GRQ      -0.002800
     19 H8           4.8780     0.3930     3.5690 hc         1 GRQ       0.053033
     20 H9           5.8680    -0.9800     3.0530 hc         1 GRQ       0.053033
     21 H10          5.2450     0.1620     1.8540 hc         1 GRQ       0.053033
     22 H11         -1.8150     0.0870     1.1100 hc         1 GRQ       0.052867
     23 H12         -0.5580    -0.9260     1.8340 hc         1 GRQ       0.052867
     24 H13         -0.4270     0.8370     1.9110 hc         1 GRQ       0.052867
     25 H14         -0.0510     0.0260    -2.1280 hc         1 GRQ       0.052867
     26 H15         -1.3660    -0.8850    -1.3730 hc         1 GRQ       0.052867
     27 H16         -1.3890     0.8840    -1.3510 hc         1 GRQ       0.052867
@<TRIPOS>BOND
     1     4     5 1
     2     4     3 1
     3     6     5 2
     4     6     7 1
     5     5     8 1
     6     7    10 2
     7     2     3 1
     8     2     1 2
     9    11     1 1
    10     1     9 1
    11     2    12 1
    12     3    13 1
    13     3    14 1
    14     4    15 1
    15     4    16 1
    16     6    17 1
    17     7    18 1
    18     8    19 1
    19     8    20 1
    20     8    21 1
    21     9    22 1
    22     9    23 1
    23     9    24 1
    24    11    25 1
    25    11    26 1
    26    11    27 1
@<TRIPOS>SUBSTRUCTURE
     1 GRQ         1 TEMP              0 ****  ****    0 ROOT
