@<TRIPOS>MOLECULE
molecule
   37    38     1     0     0
SMALL
bcc


@<TRIPOS>ATOM
      1 CAA          0.0000     0.0000     0.0000 c3         1 GRR      -0.087100
      2 CAM          1.5290     0.0000     0.0000 c3         1 GRR      -0.025100
      3 CAQ          2.0310     0.0000     1.4220 ca         1 GRR      -0.154300
      4 CAJ          2.2550     1.1980     2.0740 ca         1 GRR      -0.094500
      5 CAL          2.7140     1.2010     3.3770 ca         1 GRR      -0.191500
      6 CAI          2.2610    -1.1980     2.0720 ca         1 GRR      -0.094500
      7 CAK          2.7200    -1.2000     3.3750 ca         1 GRR      -0.191500
      8 CAS          2.9510    -0.0000     4.0310 ca         1 GRR       0.194100
      9 OAO          3.4030    -0.0000     5.3120 os         1 GRR      -0.315900
     10 CAT          3.4980     1.2670     5.9660 c3         1 GRR       0.034100
     11 CAP          4.8150     1.9120     5.6230 c          1 GRR       0.867600
     12 OAC          5.1250     3.1170     6.1280 o          1 GRR      -0.826800
     13 OAB          5.5930     1.3460     4.8920 o          1 GRR      -0.826800
     14 CAN          3.4080     1.0670     7.4810 c3         1 GRR      -0.019100
     15 CAR          2.0430     0.5360     7.8370 ca         1 GRR      -0.050300
     16 CAG          1.8210    -0.8280     7.8760 ca         1 GRR      -0.118500
     17 CAE          0.5690    -1.3150     8.2030 ca         1 GRR      -0.146000
     18 CAD         -0.4600    -0.4390     8.4900 ca         1 GRR      -0.152000
     19 CAF         -0.2380     0.9240     8.4510 ca         1 GRR      -0.146000
     20 CAH          1.0160     1.4120     8.1300 ca         1 GRR      -0.118500
     21 HAA         -0.3610    -0.0660    -1.0190 hc         1 GRR       0.027367
     22 HAAA        -0.3610    -0.8500     0.5670 hc         1 GRR       0.027367
     23 HAAB        -0.3610     0.9160     0.4520 hc         1 GRR       0.027367
     24 HAM          1.8900    -0.8850    -0.5110 hc         1 GRR       0.035200
     25 HAMA         1.8900     0.8850    -0.5110 hc         1 GRR       0.035200
     26 HAJ          2.0830     2.1350     1.5590 ha         1 GRR       0.114500
     27 HAL          2.9260     2.1390     3.8740 ha         1 GRR       0.145000
     28 HAI          2.1100    -2.1350     1.5500 ha         1 GRR       0.114500
     29 HAK          2.9140    -2.1390     3.8790 ha         1 GRR       0.145000
     30 HAT          2.6870     1.9050     5.6370 h1         1 GRR       0.043700
     31 HAN          4.1650     0.3600     7.7980 hc         1 GRR       0.070700
     32 HANA         3.5670     2.0150     7.9800 hc         1 GRR       0.070700
     33 HAG          2.6400    -1.5150     7.6990 ha         1 GRR       0.135500
     34 HAE          0.3960    -2.3840     8.2380 ha         1 GRR       0.114500
     35 HAD         -1.4410    -0.8220     8.7450 ha         1 GRR       0.109000
     36 HAF         -1.0540     1.6110     8.6430 ha         1 GRR       0.114500
     37 HAH          0.9960     2.4710     8.3550 ha         1 GRR       0.135500
@<TRIPOS>BOND
     1     1     2 1
     2     1    21 1
     3     1    22 1
     4     1    23 1
     5     3     2 1
     6     2    24 1
     7     2    25 1
     8     4     3 ar
     9     3     6 ar
    10     4     5 ar
    11     4    26 1
    12     5     8 ar
    13     5    27 1
    14     6     7 ar
    15     6    28 1
    16     8     7 ar
    17     7    29 1
    18     8     9 1
    19     9    10 1
    20    14    10 1
    21    10    11 1
    22    10    30 1
    23    11    13 1
    24    11    12 1
    25    15    14 1
    26    14    31 1
    27    14    32 1
    28    16    15 ar
    29    20    15 ar
    30    17    16 ar
    31    16    33 1
    32    18    17 ar
    33    17    34 1
    34    18    19 ar
    35    18    35 1
    36    19    20 ar
    37    19    36 1
    38    20    37 1
@<TRIPOS>SUBSTRUCTURE
     1 GRR         1 TEMP              0 ****  ****    0 ROOT
