@<TRIPOS>MOLECULE
GRR
   37    38     1     0     0
SMALL
bcc


@<TRIPOS>ATOM
      1 CAA         0.1630    0.1100   -0.2430 c3        1 GRR     -0.087100
      2 CAM         1.6400   -0.1930   -0.1550 c3        1 GRR     -0.020100
      3 CAQ         2.1480   -0.1060    1.2410 ca        1 GRR     -0.147300
      4 CAJ         2.3130    1.1420    1.8550 ca        1 GRR     -0.106500
      5 CAL         2.7930    1.2460    3.1550 ca        1 GRR     -0.187000
      6 CAI         2.4840   -1.2630    1.9520 ca        1 GRR     -0.106500
      7 CAK         2.9590   -1.1840    3.2560 ca        1 GRR     -0.187000
      8 CAS         3.1110    0.0760    3.8660 ca        1 GRR      0.156100
      9 OAO         3.6160    0.0530    5.1410 os        1 GRR     -0.328900
     10 CAT         3.3440    1.2040    5.9750 c3        1 GRR      0.017100
     11 CAP         4.4330    2.3070    5.7980 c         1 GRR      0.905600
     12 OAC         5.5190    2.1890    6.4200 o         1 GRR     -0.822300
     13 OAB         4.1170    3.2880    5.0670 o         1 GRR     -0.822300
     14 CAN         3.3510    0.6610    7.4030 c3        1 GRR     -0.046100
     15 CAR         1.9920    0.3600    7.9260 ca        1 GRR     -0.048300
     16 CAG         1.6360   -0.9450    8.2880 ca        1 GRR     -0.131500
     17 CAE         0.3680   -1.2160    8.8010 ca        1 GRR     -0.137500
     18 CAD        -0.5590   -0.1870    8.9580 ca        1 GRR     -0.155000
     19 CAF        -0.2140    1.1160    8.5970 ca        1 GRR     -0.137500
     20 CAH         1.0520    1.3890    8.0850 ca        1 GRR     -0.131500
     21 HAA        -0.1790    0.0670   -1.3050 hc        1 GRR      0.027700
     22 HAAA       -0.0500    1.1300    0.1600 hc        1 GRR      0.027700
     23 HAAB       -0.4260   -0.6300    0.3500 hc        1 GRR      0.027700
     24 HAM         2.2050    0.5350   -0.7990 hc        1 GRR      0.031700
     25 HAMA        1.8330   -1.2180   -0.5700 hc        1 GRR      0.031700
     26 HAJ         2.0670    2.0570    1.2960 ha        1 GRR      0.114000
     27 HAL         2.9630    2.2360    3.6240 ha        1 GRR      0.169000
     28 HAI         2.3690   -2.2480    1.4770 ha        1 GRR      0.114000
     29 HAK         3.2270   -2.0890    3.8160 ha        1 GRR      0.169000
     30 HAT         2.3400    1.6300    5.7090 h1        1 GRR      0.042700
     31 HAN         3.8410    1.4350    8.0560 hc        1 GRR      0.075700
     32 HANA        3.9990   -0.2550    7.4350 hc        1 GRR      0.075700
     33 HAG         2.3630   -1.7600    8.1590 ha        1 GRR      0.138000
     34 HAE         0.0990   -2.2440    9.0790 ha        1 GRR      0.115500
     35 HAD        -1.5580   -0.4010    9.3600 ha        1 GRR      0.113000
     36 HAF        -0.9440    1.9290    8.7150 ha        1 GRR      0.115500
     37 HAH         1.3250    2.4150    7.7950 ha        1 GRR      0.138000
@<TRIPOS>BOND
     1    1    2 1   
     2    1   21 1   
     3    1   22 1   
     4    1   23 1   
     5    2    3 1   
     6    2   24 1   
     7    2   25 1   
     8    3    4 ar  
     9    3    6 ar  
    10    4    5 ar  
    11    4   26 1   
    12    5    8 ar  
    13    5   27 1   
    14    6    7 ar  
    15    6   28 1   
    16    7    8 ar  
    17    7   29 1   
    18    8    9 1   
    19    9   10 1   
    20   10   11 1   
    21   10   14 1   
    22   10   30 1   
    23   11   12 1   
    24   11   13 1   
    25   14   15 1   
    26   14   31 1   
    27   14   32 1   
    28   15   16 ar  
    29   15   20 ar  
    30   16   17 ar  
    31   16   33 1   
    32   17   18 ar  
    33   17   34 1   
    34   18   19 ar  
    35   18   35 1   
    36   19   20 ar  
    37   19   36 1   
    38   20   37 1   
@<TRIPOS>SUBSTRUCTURE
     1 GRR         1 TEMP              0 ****  ****    0 ROOT
