@<TRIPOS>MOLECULE
GRX
   29    29     1     0     0
SMALL
bcc


@<TRIPOS>ATOM
      1 O1P         2.7390   -0.9310   -0.8380 o         1 GRX     -0.898500
      2 P           2.9610    0.1340    0.1860 p5        1 GRX      1.191700
      3 O2P         4.0770   -0.1280    1.1640 o         1 GRX     -0.898500
      4 O3P         2.7420    1.5410   -0.2550 o         1 GRX     -0.898500
      5 C7          1.3210   -0.1730    1.4130 c3        1 GRX     -0.000600
      6 F1          1.4300    0.9750    2.1660 f         1 GRX     -0.276300
      7 C1          1.0220   -1.4070    2.2530 c3        1 GRX      0.147100
      8 O5         -0.3690   -1.3000    2.6500 os        1 GRX     -0.447600
      9 C5         -0.8470   -2.3910    3.4170 c3        1 GRX      0.105100
     10 C6         -2.3260   -2.1090    3.6880 c3        1 GRX      0.146400
     11 O6         -3.0660   -1.9850    2.4890 oh        1 GRX     -0.635800
     12 C4         -0.0620   -2.5020    4.7330 c3        1 GRX      0.111100
     13 O4         -0.5680   -3.6160    5.4630 oh        1 GRX     -0.628800
     14 C3          1.4220   -2.6760    4.3950 c3        1 GRX      0.096100
     15 O3          2.1390   -2.7360    5.6240 oh        1 GRX     -0.654800
     16 C2          1.9010   -1.5100    3.5080 c3        1 GRX      0.129100
     17 O2          3.2520   -1.7870    3.2310 oh        1 GRX     -0.695800
     18 H7          0.5020   -0.0530    0.6640 h1        1 GRX      0.021700
     19 H1          1.1350   -2.3340    1.6280 h1        1 GRX      0.049700
     20 H2          1.8250   -0.5460    4.0880 h1        1 GRX      0.042700
     21 H5         -0.7400   -3.3500    2.8370 h1        1 GRX      0.040700
     22 H61C       -2.4310   -1.1650    4.2870 h1        1 GRX      0.033700
     23 H62C       -2.7840   -2.9680    4.2440 h1        1 GRX      0.033700
     24 H4         -0.2060   -1.5740    5.3520 h1        1 GRX      0.047700
     25 HA          0.1270   -3.8620    6.0860 ho        1 GRX      0.406000
     26 H3          1.5810   -3.6540    3.8590 h1        1 GRX      0.045700
     27 HB          3.0270   -2.4050    5.4300 ho        1 GRX      0.433000
     28 HC          3.5370   -1.1940    2.4710 ho        1 GRX      0.523000
     29 H6         -2.5300   -1.4510    1.8850 ho        1 GRX      0.432000
@<TRIPOS>BOND
     1    1    2 1   
     2    2    3 1   
     3    2    4 1   
     4    2    5 1   
     5    5    6 1   
     6    5    7 1   
     7    5   18 1   
     8    7    8 1   
     9    7   16 1   
    10    7   19 1   
    11    8    9 1   
    12    9   10 1   
    13    9   12 1   
    14    9   21 1   
    15   10   11 1   
    16   10   22 1   
    17   10   23 1   
    18   11   29 1   
    19   12   13 1   
    20   12   14 1   
    21   12   24 1   
    22   13   25 1   
    23   14   15 1   
    24   14   16 1   
    25   14   26 1   
    26   15   27 1   
    27   16   17 1   
    28   16   20 1   
    29   17   28 1   
@<TRIPOS>SUBSTRUCTURE
     1 GRX         1 TEMP              0 ****  ****    0 ROOT
