@<TRIPOS>MOLECULE
molecule
   29    29     1     0     0
SMALL
bcc


@<TRIPOS>ATOM
      1 O1P          0.0000     0.0000     0.0000 o          1 GRX      -0.891167
      2 P            1.4800     0.0000     0.0000 p5         1 GRX       1.007700
      3 O2P          2.0160    -1.3150    -0.7590 o          1 GRX      -0.891167
      4 O3P          2.0160     1.3140    -0.7590 o          1 GRX      -0.891167
      5 C7           2.0870     0.0000     1.7180 c3         1 GRX       0.043400
      6 F1           3.4860     0.0000     1.7180 f          1 GRX      -0.256300
      7 C1           1.5780    -1.2490     2.4400 c3         1 GRX       0.138100
      8 O5           0.1490    -1.2500     2.4400 os         1 GRX      -0.319600
      9 C5          -0.4350    -2.3920     3.0700 c3         1 GRX       0.149100
     10 C6          -1.9600    -2.2980     2.9850 c3         1 GRX       0.158400
     11 O6          -2.3670    -2.3720     1.6170 oh         1 GRX      -0.539800
     12 C4          -0.0070    -2.4370     4.5390 c3         1 GRX       0.095100
     13 O4          -0.5420    -3.6100     5.1560 oh         1 GRX      -0.620800
     14 C3           1.5230    -2.4700     4.6160 c3         1 GRX       0.095100
     15 O3           1.9330    -2.4390     5.9850 oh         1 GRX      -0.633800
     16 C2           2.0860    -1.2490     3.8840 c3         1 GRX       0.100100
     17 O2           3.5140    -1.3070     3.8870 oh         1 GRX      -0.576800
     18 H7           1.7260     0.8850     2.2290 h1         1 GRX       0.025700
     19 H1           1.9370    -2.1360     1.9330 h1         1 GRX       0.081700
     20 H2           1.7550    -0.3460     4.3820 h1         1 GRX       0.036700
     21 H5          -0.0950    -3.2900     2.5690 h1         1 GRX       0.060700
     22 H61C        -2.2880    -1.3570     3.4090 h1         1 GRX       0.004700
     23 H62C        -2.4030    -3.1170     3.5380 h1         1 GRX       0.004700
     24 H4          -0.3740    -1.5550     5.0490 h1         1 GRX       0.041700
     25 HA          -0.8680    -3.3930     6.0140 ho         1 GRX       0.385000
     26 H3           1.8880    -3.3740     4.1440 h1         1 GRX       0.056700
     27 HB           2.4300    -3.2160     6.1820 ho         1 GRX       0.390000
     28 HC           3.8500    -0.7470     4.5670 ho         1 GRX       0.380000
     29 H6          -3.3050    -2.4540     1.5730 ho         1 GRX       0.366000
@<TRIPOS>BOND
     1     1     2 1
     2     2     3 1
     3     2     4 1
     4     2     5 1
     5     5     6 1
     6     5     7 1
     7     7     8 1
     8     7    16 1
     9     8     9 1
    10     9    10 1
    11     9    12 1
    12    10    11 1
    13    12    13 1
    14    12    14 1
    15    14    15 1
    16    14    16 1
    17    16    17 1
    18    11    29 1
    19     5    18 1
    20     7    19 1
    21    16    20 1
    22     9    21 1
    23    10    22 1
    24    10    23 1
    25    12    24 1
    26    13    25 1
    27    14    26 1
    28    15    27 1
    29    17    28 1
@<TRIPOS>SUBSTRUCTURE
     1 GRX         1 TEMP              0 ****  ****    0 ROOT
