@<TRIPOS>MOLECULE
molecule
   30    31     1     0     0
SMALL
bcc


@<TRIPOS>ATOM
      1 N1           0.0000     0.0000     0.0000 nb         1 GRY      -0.798500
      2 N3          -4.9710     0.4660     5.8290 nv         1 GRY      -0.924200
      3 C4           1.3230     0.0000     0.0000 ca         1 GRY       0.505100
      4 C5           2.0850     0.0010    -1.3010 c3         1 GRY      -0.143900
      5 C6          -0.6760     0.0000     1.1400 ca         1 GRY       0.944900
      6 C7          -2.7930     0.1170     2.2920 ca         1 GRY       0.101600
      7 C8          -3.9550    -0.6230     2.4670 ca         1 GRY      -0.091500
      8 C10         -4.2410     0.3490     4.6420 ca         1 GRY       0.190600
      9 C1           1.9540    -0.0010     3.7200 c3         1 GRY      -0.143900
     10 C2           1.2610    -0.0000     2.3820 ca         1 GRY       0.505100
     11 C3           1.9990     0.0000     1.2100 ca         1 GRY      -0.440600
     12 N2          -2.0610    -0.0010     1.1040 nu         1 GRY      -0.755300
     13 C9          -4.6770    -0.5060     3.6390 ca         1 GRY      -0.196500
     14 C11         -3.0800     1.0910     4.4640 ca         1 GRY      -0.196500
     15 C12         -2.3590     0.9760     3.2930 ca         1 GRY      -0.091500
     16 N4          -0.0610    -0.0010     2.3130 nb         1 GRY      -0.798500
     17 H1          -5.8370    -0.0250     5.9340 hn         1 GRY       0.427300
     18 H2          -4.6480     1.0710     6.5580 hn         1 GRY       0.427300
     19 H3           1.3860     0.0060    -2.1290 hc         1 GRY       0.055700
     20 H4           2.7110     0.8830    -1.3520 hc         1 GRY       0.055700
     21 H5           2.7040    -0.8860    -1.3570 hc         1 GRY       0.055700
     22 H6          -4.2960    -1.2900     1.6850 ha         1 GRY       0.140000
     23 H7           1.3630    -0.5630     4.4320 hc         1 GRY       0.055700
     24 H8           2.0660     1.0180     4.0690 hc         1 GRY       0.055700
     25 H9           2.9310    -0.4590     3.6200 hc         1 GRY       0.055700
     26 H10          3.0820    -0.0000     1.2380 ha         1 GRY       0.143000
     27 H11         -2.5380    -0.0650     0.2260 hn         1 GRY       0.463800
     28 H12         -5.5840    -1.0830     3.7760 ha         1 GRY       0.129000
     29 H13         -2.7410     1.7610     5.2450 ha         1 GRY       0.129000
     30 H14         -1.4530     1.5530     3.1560 ha         1 GRY       0.140000
@<TRIPOS>BOND
     1     9    10 1
     2    14    15 ar
     3    14     8 ar
     4     2     8 1
     5    15     6 ar
     6     8    13 ar
     7    10    16 ar
     8    10    11 ar
     9    16     5 ar
    10    11     3 ar
    11     6    12 1
    12     6     7 ar
    13    13     7 ar
    14     5    12 1
    15     5     1 ar
    16     3     1 ar
    17     3     4 1
    18     2    17 1
    19     2    18 1
    20     4    19 1
    21     4    20 1
    22     4    21 1
    23     7    22 1
    24     9    23 1
    25     9    24 1
    26     9    25 1
    27    11    26 1
    28    12    27 1
    29    13    28 1
    30    14    29 1
    31    15    30 1
@<TRIPOS>SUBSTRUCTURE
     1 GRY         1 TEMP              0 ****  ****    0 ROOT
