@<TRIPOS>MOLECULE
GRY
   30    31     1     0     0
SMALL
bcc


@<TRIPOS>ATOM
      1 N1           0.0000     0.0000     0.0000 nb         1 GRY      -0.694000
      2 N3          -4.9710     0.4660     5.8290 nv         1 GRY      -0.450200
      3 C4           1.3230     0.0000     0.0000 ca         1 GRY       0.461100
      4 C5           2.0850     0.0010    -1.3010 c3         1 GRY      -0.042900
      5 C6          -0.6760     0.0000     1.1400 ca         1 GRY       0.709900
      6 C7          -2.7930     0.1170     2.2920 ca         1 GRY      -0.064400
      7 C8          -3.9550    -0.6230     2.4670 ca         1 GRY      -0.058500
      8 C10         -4.2410     0.3490     4.6420 ca         1 GRY       0.045600
      9 C1           1.9540    -0.0010     3.7200 c3         1 GRY      -0.042900
     10 C2           1.2610    -0.0000     2.3820 ca         1 GRY       0.461100
     11 C3           1.9990     0.0000     1.2100 ca         1 GRY      -0.419600
     12 N2          -2.0610    -0.0010     1.1040 nu         1 GRY      -0.284300
     13 C9          -4.6770    -0.5060     3.6390 ca         1 GRY      -0.173500
     14 C11         -3.0800     1.0910     4.4640 ca         1 GRY      -0.173500
     15 C12         -2.3590     0.9760     3.2930 ca         1 GRY      -0.058500
     16 N4          -0.0610    -0.0010     2.3130 nb         1 GRY      -0.694000
     17 H1          -5.8370    -0.0250     5.9340 hn         1 GRY       0.264300
     18 H2          -4.6480     1.0710     6.5580 hn         1 GRY       0.264300
     19 H3           1.3860     0.0060    -2.1290 hc         1 GRY       0.015867
     20 H4           2.7110     0.8830    -1.3520 hc         1 GRY       0.015867
     21 H5           2.7040    -0.8860    -1.3570 hc         1 GRY       0.015867
     22 H6          -4.2960    -1.2900     1.6850 ha         1 GRY       0.112000
     23 H7           1.3630    -0.5630     4.4320 hc         1 GRY       0.015867
     24 H8           2.0660     1.0180     4.0690 hc         1 GRY       0.015867
     25 H9           2.9310    -0.4590     3.6200 hc         1 GRY       0.015867
     26 H10          3.0820    -0.0000     1.2380 ha         1 GRY       0.128000
     27 H11         -2.5380    -0.0650     0.2260 hn         1 GRY       0.289800
     28 H12         -5.5840    -1.0830     3.7760 ha         1 GRY       0.107000
     29 H13         -2.7410     1.7610     5.2450 ha         1 GRY       0.107000
     30 H14         -1.4530     1.5530     3.1560 ha         1 GRY       0.112000
@<TRIPOS>BOND
     1     1     3 ar  
     2     1     5 ar  
     3     2     8 1   
     4     2    17 1   
     5     2    18 1   
     6     3     4 1   
     7     3    11 ar  
     8     4    19 1   
     9     4    20 1   
    10     4    21 1   
    11     5    12 1   
    12     5    16 ar  
    13     6     7 ar  
    14     6    12 1   
    15     6    15 ar  
    16     7    13 ar  
    17     7    22 1   
    18     8    13 ar  
    19     8    14 ar  
    20     9    10 1   
    21     9    23 1   
    22     9    24 1   
    23     9    25 1   
    24    10    11 ar  
    25    10    16 ar  
    26    11    26 1   
    27    12    27 1   
    28    13    28 1   
    29    14    15 ar  
    30    14    29 1   
    31    15    30 1   
@<TRIPOS>SUBSTRUCTURE
     1 GRY         1 TEMP              0 ****  ****    0 ROOT
