@<TRIPOS>MOLECULE
GRZ
   34    36     1     0     0
SMALL
bcc


@<TRIPOS>ATOM
      1 C1           0.0000     0.0000     0.0000 ca         1 GRZ       0.102900
      2 C2           1.3850     0.0000     0.0000 ca         1 GRZ      -0.117000
      3 C3           2.0760     0.0000     1.1960 ca         1 GRZ      -0.092500
      4 C4           1.3820     0.0010     2.3980 ca         1 GRZ       0.083100
      5 C5          -0.0050     0.0020     2.3960 ca         1 GRZ      -0.092500
      6 C6          -0.6940     0.0060     1.1980 ca         1 GRZ      -0.117000
      7 C13          2.7760     1.1100     3.8990 ca         1 GRZ       0.169100
      8 C14          3.5950     1.1090     5.0260 ca         1 GRZ      -0.192200
      9 C15          4.3260     2.2410     5.3500 ca         1 GRZ      -0.068000
     10 C16          4.2420     3.3690     4.5530 ca         1 GRZ      -0.065600
     11 C17          3.4280     3.3700     3.4340 ca         1 GRZ      -0.040000
     12 C18          2.6960     2.2440     3.1060 ca         1 GRZ      -0.184000
     13 C26          4.2030    -1.4510     7.4080 cc         1 GRZ       0.168800
     14 C27          4.4250    -0.1830     6.9470 cd         1 GRZ      -0.314600
     15 C28          4.8130    -2.0510     8.6100 c          1 GRZ       0.524600
     16 Cl1          5.1580     4.7870     4.9590 cl         1 GRZ      -0.001400
     17 O12          2.0610     0.0010     3.5750 os         1 GRZ      -0.174200
     18 N23          3.6780    -0.0370     5.8330 na         1 GRZ       0.647300
     19 N24          3.0030    -1.2500     5.6360 nd         1 GRZ      -0.367800
     20 N25          3.3300    -2.0550     6.5850 nc         1 GRZ      -0.257000
     21 N29          4.5090    -3.3170     8.9580 ns         1 GRZ      -0.037400
     22 O30          5.0950    -3.8930    10.1110 oh         1 GRZ      -0.443100
     23 O31          5.5900    -1.4040     9.2850 o          1 GRZ      -0.633100
     24 F1          -0.6750    -0.0010    -1.1710 f          1 GRZ      -0.124900
     25 H1           1.9260    -0.0030    -0.9380 ha         1 GRZ       0.123500
     26 H2           3.1590    -0.0000     1.1950 ha         1 GRZ       0.123000
     27 H3          -0.5490     0.0050     3.3330 ha         1 GRZ       0.123000
     28 H4          -1.7770     0.0070     1.1960 ha         1 GRZ       0.123500
     29 H5           4.9640     2.2430     6.2250 ha         1 GRZ       0.131000
     30 H6           3.3640     4.2550     2.8130 ha         1 GRZ       0.119000
     31 H7           2.0600     2.2490     2.2290 ha         1 GRZ       0.138000
     32 H8           5.2060     0.4890     7.2840 h4         1 GRZ       0.177000
     33 H9           3.8420    -3.8370     8.4230 hn         1 GRZ       0.172500
     34 H10          4.8790    -4.8100    10.1490 ho         1 GRZ       0.394000
@<TRIPOS>BOND
     1     1     2 ar  
     2     1     6 ar  
     3     1    24 1   
     4     2     3 ar  
     5     2    25 1   
     6     3     4 ar  
     7     3    26 1   
     8     4     5 ar  
     9     4    17 1   
    10     5     6 ar  
    11     5    27 1   
    12     6    28 1   
    13     7     8 ar  
    14     7    12 ar  
    15     7    17 1   
    16     8     9 ar  
    17     8    18 1   
    18     9    10 ar  
    19     9    29 1   
    20    10    11 ar  
    21    10    16 1   
    22    11    12 ar  
    23    11    30 1   
    24    12    31 1   
    25    13    14 2   
    26    13    15 1   
    27    13    20 1   
    28    14    18 1   
    29    14    32 1   
    30    15    21 1   
    31    15    23 2   
    32    18    19 1   
    33    19    20 2   
    34    21    22 1   
    35    21    33 1   
    36    22    34 1   
@<TRIPOS>SUBSTRUCTURE
     1 GRZ         1 TEMP              0 ****  ****    0 ROOT
