@<TRIPOS>MOLECULE
molecule
   66    70     1     0     0
SMALL
bcc


@<TRIPOS>ATOM
      1 C1           0.0000     0.0000     0.0000 c3         1 GS2       0.101300
      2 N1           1.4660     0.0000     0.0000 ns         1 GS2      -0.578900
      3 C2           2.1400     0.0000     1.1680 c          1 GS2       0.674700
      4 O1           1.5300     0.0010     2.2210 o          1 GS2      -0.599100
      5 C3           3.6120    -0.0010     1.1680 ca         1 GS2      -0.232600
      6 C4           4.3160    -1.2100     1.1690 ca         1 GS2       0.182900
      7 F1           3.6460    -2.3840     1.1700 f          1 GS2      -0.132900
      8 C5           5.6980    -1.2010     1.1690 ca         1 GS2      -0.200000
      9 C6           6.3890    -0.0030     1.1670 ca         1 GS2      -0.074000
     10 C7           5.7080     1.1980     1.1670 ca         1 GS2      -0.161000
     11 C8           4.3200     1.2120     1.1610 ca         1 GS2       0.218600
     12 N2           3.6340     2.4210     1.1550 nu         1 GS2      -0.751300
     13 C9           4.2430     3.5610     0.6570 ca         1 GS2       0.793200
     14 N3           5.4330     3.4940     0.0700 nb         1 GS2      -0.870000
     15 C10          6.0200     4.5840    -0.4080 ca         1 GS2       0.983900
     16 N4           7.2620     4.4610    -1.0130 nu         1 GS2      -0.741300
     17 C11          7.9620     5.6060    -1.4120 ca         1 GS2       0.160600
     18 C12          7.7220     6.8140    -0.7820 ca         1 GS2      -0.098000
     19 C13          8.4150     7.9510    -1.1760 ca         1 GS2       0.000600
     20 N5           8.3960     9.2690    -0.7490 n          1 GS2      -0.225200
     21 C14          9.2950    10.0060    -1.4860 cc         1 GS2      -0.089400
     22 C15          9.9030     9.2190    -2.3830 cd         1 GS2      -0.159200
     23 C16          9.3580     7.8670    -2.2140 ca         1 GS2      -0.091800
     24 C17          9.5950     6.6440    -2.8450 ca         1 GS2      -0.169000
     25 C18          8.9040     5.5200    -2.4420 ca         1 GS2       0.091100
     26 O2           9.1350     4.3260    -3.0510 os         1 GS2      -0.337900
     27 C19         10.1100     4.3090    -4.0950 c3         1 GS2       0.131700
     28 C20          7.6160     9.7560     0.2370 c          1 GS2       0.665100
     29 O3           6.8550     9.0200     0.8270 o          1 GS2      -0.540100
     30 C21          7.6920    11.2150     0.6060 c3         1 GS2       0.088800
     31 N6           6.7510    11.4930     1.7000 n3         1 GS2      -0.714600
     32 C22          7.1560    10.7990     2.9300 c3         1 GS2       0.151100
     33 C23          6.6200    12.9380     1.9290 c3         1 GS2       0.151100
     34 N7           5.4670     5.7820    -0.3300 nb         1 GS2      -0.836000
     35 C24          4.2750     5.9440     0.2420 ca         1 GS2       0.560800
     36 N8           3.4650     7.0220     0.4700 na         1 GS2      -0.266100
     37 C25          2.3200     6.6220     1.1140 cc         1 GS2      -0.115100
     38 C26          2.3540     5.2950     1.3180 cd         1 GS2      -0.165200
     39 C27          3.6160     4.8130     0.7570 ca         1 GS2      -0.436400
     40 H1          -0.3610    -0.8420     0.5790 h1         1 GS2       0.042700
     41 H1A         -0.3610     0.9220     0.4390 h1         1 GS2       0.042700
     42 H1B         -0.3610    -0.0800    -1.0180 h1         1 GS2       0.042700
     43 HN1          1.9660    -0.0330    -0.8660 hn         1 GS2       0.321500
     44 H5           6.2420    -2.1380     1.1700 ha         1 GS2       0.146000
     45 H6           7.4730    -0.0080     1.1690 ha         1 GS2       0.138000
     46 H7           6.2580     2.1310     1.1640 ha         1 GS2       0.183000
     47 HN2          2.7140     2.4770     1.5470 hn         1 GS2       0.474800
     48 HN4          7.6670     3.5560    -1.1440 hn         1 GS2       0.476800
     49 H12          7.0460     6.8580     0.0630 ha         1 GS2       0.201000
     50 H14          9.4820    11.0660    -1.3610 h4         1 GS2       0.166000
     51 H15         10.6570     9.5230    -3.0980 ha         1 GS2       0.155000
     52 H17         10.3240     6.5760    -3.6430 ha         1 GS2       0.140000
     53 H19         11.0570     4.6680    -3.7120 h1         1 GS2       0.041367
     54 H19A        10.2290     3.2960    -4.4610 h1         1 GS2       0.041367
     55 H19B         9.7820     4.9490    -4.9060 h1         1 GS2       0.041367
     56 H21          7.4330    11.8190    -0.2550 h1         1 GS2       0.057200
     57 H21A         8.6990    11.4550     0.9260 h1         1 GS2       0.057200
     58 H22          6.5060     9.9480     3.0950 h1         1 GS2       0.037033
     59 H22A         7.0810    11.4790     3.7700 h1         1 GS2       0.037033
     60 H22B         8.1790    10.4580     2.8320 h1         1 GS2       0.037033
     61 H23          7.5870    13.3510     2.1880 h1         1 GS2       0.037033
     62 H23A         6.2540    13.4140     1.0270 h1         1 GS2       0.037033
     63 H23B         5.9220    13.1140     2.7390 h1         1 GS2       0.037033
     64 HN8          3.6760     7.9640     0.2070 hn         1 GS2       0.314700
     65 H25          1.5110     7.2780     1.4120 h4         1 GS2       0.172000
     66 H26          1.5920     4.6970     1.8030 ha         1 GS2       0.152000
@<TRIPOS>BOND
     1     1     2 1
     2     2     3 1
     3     3     4 2
     4     3     5 1
     5     5     6 ar
     6     5    11 ar
     7     6     7 1
     8     6     8 ar
     9     8     9 ar
    10     9    10 ar
    11    10    11 ar
    12    11    12 1
    13    12    13 1
    14    13    14 ar
    15    13    39 ar
    16    14    15 ar
    17    15    16 1
    18    15    34 ar
    19    16    17 1
    20    17    18 ar
    21    17    25 ar
    22    18    19 ar
    23    19    20 1
    24    19    23 ar
    25    20    21 1
    26    20    28 1
    27    21    22 2
    28    22    23 1
    29    23    24 ar
    30    24    25 ar
    31    25    26 1
    32    26    27 1
    33    28    29 2
    34    28    30 1
    35    30    31 1
    36    31    32 1
    37    31    33 1
    38    34    35 ar
    39    35    36 1
    40    35    39 ar
    41    36    37 1
    42    37    38 2
    43    38    39 1
    44     1    40 1
    45     1    41 1
    46     1    42 1
    47     2    43 1
    48     8    44 1
    49     9    45 1
    50    10    46 1
    51    12    47 1
    52    16    48 1
    53    18    49 1
    54    21    50 1
    55    22    51 1
    56    24    52 1
    57    27    53 1
    58    27    54 1
    59    27    55 1
    60    30    56 1
    61    30    57 1
    62    32    58 1
    63    32    59 1
    64    32    60 1
    65    33    61 1
    66    33    62 1
    67    33    63 1
    68    36    64 1
    69    37    65 1
    70    38    66 1
@<TRIPOS>SUBSTRUCTURE
     1 GS2         1 TEMP              0 ****  ****    0 ROOT
