@<TRIPOS>MOLECULE
GS3
   70    74     1     0     0
SMALL
bcc


@<TRIPOS>ATOM
      1 C1           0.0000     0.0000     0.0000 c3         1 GS3       0.248700
      2 O1           1.4300     0.0000     0.0000 os         1 GS3      -0.323900
      3 C2           2.0470     0.0000     1.2120 ca         1 GS3       0.153100
      4 C3           1.2930    -0.0010     2.3730 ca         1 GS3      -0.220000
      5 C4           1.9250    -0.0010     3.6090 ca         1 GS3       0.066600
      6 C5           3.3120    -0.0010     3.6810 ca         1 GS3      -0.190000
      7 C6           4.0650    -0.0000     2.5220 ca         1 GS3      -0.062000
      8 C7           3.4380    -0.0060     1.2860 ca         1 GS3      -0.084400
      9 N1           4.2030    -0.0100     0.1100 nu         1 GS3      -0.240300
     10 C8           5.4920    -0.5180     0.1240 ca         1 GS3       0.739900
     11 N2           6.2370    -0.4020    -0.9670 nb         1 GS3      -0.752000
     12 C9           7.4790    -0.8740    -1.0030 ca         1 GS3       0.588200
     13 N3           8.2530    -0.7500    -2.1440 nu         1 GS3      -0.296300
     14 C10          7.7770    -0.0210    -3.2300 ca         1 GS3       0.102600
     15 C11          6.8310     0.9760    -3.0410 ca         1 GS3      -0.141000
     16 C12          6.3610     1.6980    -4.1190 ca         1 GS3       0.020000
     17 C13          6.8250     1.4360    -5.3960 ca         1 GS3      -0.147000
     18 C14          7.7670     0.4480    -5.6060 ca         1 GS3       0.176900
     19 F1           8.2180     0.1960    -6.8540 f          1 GS3      -0.120900
     20 C15          8.2580    -0.2890    -4.5220 ca         1 GS3      -0.354600
     21 C16          9.2660    -1.3410    -4.7360 c          1 GS3       0.374700
     22 O2           8.9150    -2.4830    -4.9630 o          1 GS3      -0.383100
     23 N4          10.5780    -1.0390    -4.6800 nz         1 GS3       0.188600
     24 C17          7.9890    -1.4990     0.1460 ca         1 GS3      -0.446400
     25 C18          9.2610    -2.1270     0.5030 cc         1 GS3      -0.145200
     26 C19          9.1410    -2.5530     1.7710 cd         1 GS3      -0.252100
     27 N5           7.8920    -2.2440     2.2480 na         1 GS3       0.278900
     28 C20          7.1670    -1.6020     1.2830 ca         1 GS3       0.340800
     29 N6           5.9350    -1.0970     1.2280 nb         1 GS3      -0.702000
     30 N7           1.1650    -0.0020     4.7840 nh         1 GS3      -0.362000
     31 C21          2.0290    -0.0030     5.9720 c3         1 GS3       0.137800
     32 C22          1.1640    -0.0840     7.2310 c3         1 GS3       0.139800
     33 N8           0.2360     1.0560     7.2590 n3         1 GS3      -0.542600
     34 C23         -0.6290     1.0580     6.0710 c3         1 GS3       0.139800
     35 C24          0.2380     1.1380     4.8120 c3         1 GS3       0.137800
     36 C25         -0.5620     1.0550     8.4910 c3         1 GS3       0.131500
     37 C26         -1.4230     2.3190     8.5430 c3         1 GS3      -0.025100
     38 C27         -1.4660    -0.1780     8.5140 c3         1 GS3      -0.025100
     39 H1          -0.3610     0.9020     0.4780 h1         1 GS3       0.002033
     40 H1A         -0.3610    -0.8660     0.5420 h1         1 GS3       0.002033
     41 H1B         -0.3610    -0.0370    -1.0210 h1         1 GS3       0.002033
     42 H3           0.2110    -0.0010     2.3170 ha         1 GS3       0.137000
     43 H5           3.8040     0.0010     4.6460 ha         1 GS3       0.128000
     44 H6           5.1470    -0.0020     2.5800 ha         1 GS3       0.144000
     45 HN1          3.8260     0.3750    -0.7340 hn         1 GS3       0.294800
     46 HN3          9.1720    -1.1440    -2.1700 hn         1 GS3       0.259800
     47 H11          6.4620     1.1880    -2.0450 ha         1 GS3       0.181000
     48 H12          5.6220     2.4760    -3.9640 ha         1 GS3       0.124000
     49 H13          6.4490     2.0090    -6.2350 ha         1 GS3       0.142000
     50 HN4         10.6910    -0.1030    -4.3430 hn         1 GS3       0.247467
     51 HN4A        10.9780    -1.1140    -5.5940 hn         1 GS3       0.247467
     52 H18         10.1310    -2.2300    -0.1330 ha         1 GS3       0.110000
     53 H19          9.9140    -3.0640     2.3320 h4         1 GS3       0.152000
     54 HN5          7.5600    -2.4580     3.1680 hn         1 GS3       0.131700
     55 H21          2.6910    -0.8600     5.9340 h1         1 GS3       0.022950
     56 H21A         2.6120     0.9100     5.9940 h1         1 GS3       0.022950
     57 H22          1.7990    -0.0530     8.1080 h1         1 GS3       0.023700
     58 H22A         0.5980    -1.0080     7.2210 h1         1 GS3       0.023700
     59 H23         -1.2120     0.1450     6.0490 h1         1 GS3       0.023700
     60 H23A        -1.2900     1.9150     6.1090 h1         1 GS3       0.023700
     61 H24         -0.3970     1.1070     3.9350 h1         1 GS3       0.022950
     62 H24A         0.8040     2.0620     4.8220 h1         1 GS3       0.022950
     63 H25          0.0990     1.0340     9.3500 h1         1 GS3       0.035700
     64 H26         -0.8610     3.1550     8.1440 hc         1 GS3       0.012867
     65 H26A        -1.6980     2.5270     9.5700 hc         1 GS3       0.012867
     66 H26B        -2.3180     2.1710     7.9520 hc         1 GS3       0.012867
     67 H27         -0.8570    -1.0730     8.4770 hc         1 GS3       0.012867
     68 H27A        -2.0540    -0.1790     9.4240 hc         1 GS3       0.012867
     69 H27B        -2.1280    -0.1560     7.6560 hc         1 GS3       0.012867
     70 H43         11.0400    -1.6720    -4.0580 hn         1 GS3       0.247467
@<TRIPOS>BOND
     1     1     2 1   
     2     1    39 1   
     3     1    40 1   
     4     1    41 1   
     5     2     3 1   
     6     3     4 ar  
     7     3     8 ar  
     8     4     5 ar  
     9     4    42 1   
    10     5     6 ar  
    11     5    30 1   
    12     6     7 ar  
    13     6    43 1   
    14     7     8 ar  
    15     7    44 1   
    16     8     9 1   
    17     9    10 1   
    18     9    45 1   
    19    10    11 ar  
    20    10    29 ar  
    21    11    12 ar  
    22    12    13 1   
    23    12    24 ar  
    24    13    14 1   
    25    13    46 1   
    26    14    15 ar  
    27    14    20 ar  
    28    15    16 ar  
    29    15    47 1   
    30    16    17 ar  
    31    16    48 1   
    32    17    18 ar  
    33    17    49 1   
    34    18    19 1   
    35    18    20 ar  
    36    20    21 1   
    37    21    22 2   
    38    21    23 1   
    39    23    50 1   
    40    23    51 1   
    41    23    70 1   
    42    24    25 1   
    43    24    28 ar  
    44    25    26 2   
    45    25    52 1   
    46    26    27 1   
    47    26    53 1   
    48    27    28 1   
    49    27    54 1   
    50    28    29 ar  
    51    30    31 1   
    52    30    35 1   
    53    31    32 1   
    54    31    55 1   
    55    31    56 1   
    56    32    33 1   
    57    32    57 1   
    58    32    58 1   
    59    33    34 1   
    60    33    36 1   
    61    34    35 1   
    62    34    59 1   
    63    34    60 1   
    64    35    61 1   
    65    35    62 1   
    66    36    37 1   
    67    36    38 1   
    68    36    63 1   
    69    37    64 1   
    70    37    65 1   
    71    37    66 1   
    72    38    67 1   
    73    38    68 1   
    74    38    69 1   
@<TRIPOS>SUBSTRUCTURE
     1 GS3         1 TEMP              0 ****  ****    0 ROOT
