@<TRIPOS>MOLECULE
molecule
   70    74     1     0     0
SMALL
bcc


@<TRIPOS>ATOM
      1 C1           0.0000     0.0000     0.0000 c3         1 GS3       0.129700
      2 O1           1.4300     0.0000     0.0000 os         1 GS3      -0.343900
      3 C2           2.0470     0.0000     1.2120 ca         1 GS3       0.135100
      4 C3           1.2930    -0.0010     2.3730 ca         1 GS3      -0.227000
      5 C4           1.9250    -0.0010     3.6090 ca         1 GS3       0.138600
      6 C5           3.3120    -0.0010     3.6810 ca         1 GS3      -0.206000
      7 C6           4.0650    -0.0000     2.5220 ca         1 GS3      -0.079000
      8 C7           3.4380    -0.0060     1.2860 ca         1 GS3       0.088600
      9 N1           4.2030    -0.0100     0.1100 nu         1 GS3      -0.726300
     10 C8           5.4920    -0.5180     0.1240 ca         1 GS3       0.994900
     11 N2           6.2370    -0.4020    -0.9670 nb         1 GS3      -0.868000
     12 C9           7.4790    -0.8740    -1.0030 ca         1 GS3       0.777200
     13 N3           8.2530    -0.7500    -2.1440 nu         1 GS3      -0.765300
     14 C10          7.7770    -0.0210    -3.2300 ca         1 GS3       0.247600
     15 C11          6.8310     0.9760    -3.0410 ca         1 GS3      -0.146000
     16 C12          6.3610     1.6980    -4.1190 ca         1 GS3      -0.027000
     17 C13          6.8250     1.4360    -5.3960 ca         1 GS3      -0.179000
     18 C14          7.7670     0.4480    -5.6060 ca         1 GS3       0.194900
     19 F1           8.2180     0.1960    -6.8540 f          1 GS3      -0.129900
     20 C15          8.2580    -0.2890    -4.5220 ca         1 GS3      -0.331600
     21 C16          9.2660    -1.3410    -4.7360 c          1 GS3       0.518700
     22 O2           8.9150    -2.4830    -4.9630 o          1 GS3      -0.373100
     23 N4          10.5780    -1.0390    -4.6800 nz         1 GS3      -0.685400
     24 C17          7.9890    -1.4990     0.1460 ca         1 GS3      -0.437400
     25 C18          9.2610    -2.1270     0.5030 cc         1 GS3      -0.191200
     26 C19          9.1410    -2.5530     1.7710 cd         1 GS3      -0.081100
     27 N5           7.8920    -2.2440     2.2480 na         1 GS3      -0.267100
     28 C20          7.1670    -1.6020     1.2830 ca         1 GS3       0.569800
     29 N6           5.9350    -1.0970     1.2280 nb         1 GS3      -0.820000
     30 N7           1.1650    -0.0020     4.7840 nh         1 GS3      -0.597000
     31 C21          2.0290    -0.0030     5.9720 c3         1 GS3       0.165800
     32 C22          1.1640    -0.0840     7.2310 c3         1 GS3       0.156800
     33 N8           0.2360     1.0560     7.2590 n3         1 GS3      -0.727600
     34 C23         -0.6290     1.0580     6.0710 c3         1 GS3       0.156800
     35 C24          0.2380     1.1380     4.8120 c3         1 GS3       0.165800
     36 C25         -0.5620     1.0550     8.4910 c3         1 GS3       0.165500
     37 C26         -1.4230     2.3190     8.5430 c3         1 GS3      -0.111600
     38 C27         -1.4660    -0.1780     8.5140 c3         1 GS3      -0.111600
     39 H1          -0.3610     0.9020     0.4780 h1         1 GS3       0.046033
     40 H1A         -0.3610    -0.8660     0.5420 h1         1 GS3       0.046033
     41 H1B         -0.3610    -0.0370    -1.0210 h1         1 GS3       0.046033
     42 H3           0.2110    -0.0010     2.3170 ha         1 GS3       0.150000
     43 H5           3.8040     0.0010     4.6460 ha         1 GS3       0.143000
     44 H6           5.1470    -0.0020     2.5800 ha         1 GS3       0.169000
     45 HN1          3.8260     0.3750    -0.7340 hn         1 GS3       0.474800
     46 HN3          9.1720    -1.1440    -2.1700 hn         1 GS3       0.435800
     47 H11          6.4620     1.1880    -2.0450 ha         1 GS3       0.209000
     48 H12          5.6220     2.4760    -3.9640 ha         1 GS3       0.168000
     49 H13          6.4490     2.0090    -6.2350 ha         1 GS3       0.174000
     50 HN4         10.6910    -0.1030    -4.3430 hn         1 GS3       0.476467
     51 HN4A        10.9780    -1.1140    -5.5940 hn         1 GS3       0.476467
     52 H18         10.1310    -2.2300    -0.1330 ha         1 GS3       0.134000
     53 H19          9.9140    -3.0640     2.3320 h4         1 GS3       0.183000
     54 HN5          7.5600    -2.4580     3.1680 hn         1 GS3       0.320700
     55 H21          2.6910    -0.8600     5.9340 h1         1 GS3       0.048200
     56 H21A         2.6120     0.9100     5.9940 h1         1 GS3       0.048200
     57 H22          1.7990    -0.0530     8.1080 h1         1 GS3       0.047950
     58 H22A         0.5980    -1.0080     7.2210 h1         1 GS3       0.047950
     59 H23         -1.2120     0.1450     6.0490 h1         1 GS3       0.047950
     60 H23A        -1.2900     1.9150     6.1090 h1         1 GS3       0.047950
     61 H24         -0.3970     1.1070     3.9350 h1         1 GS3       0.048200
     62 H24A         0.8040     2.0620     4.8220 h1         1 GS3       0.048200
     63 H25          0.0990     1.0340     9.3500 h1         1 GS3       0.064700
     64 H26         -0.8610     3.1550     8.1440 hc         1 GS3       0.041367
     65 H26A        -1.6980     2.5270     9.5700 hc         1 GS3       0.041367
     66 H26B        -2.3180     2.1710     7.9520 hc         1 GS3       0.041367
     67 H27         -0.8570    -1.0730     8.4770 hc         1 GS3       0.041367
     68 H27A        -2.0540    -0.1790     9.4240 hc         1 GS3       0.041367
     69 H27B        -2.1280    -0.1560     7.6560 hc         1 GS3       0.041367
     70 H43         11.0400    -1.6720    -4.0580 hn         1 GS3       0.476467
@<TRIPOS>BOND
     1     1     2 1
     2     2     3 1
     3     3     4 ar
     4     3     8 ar
     5     4     5 ar
     6     5     6 ar
     7     5    30 1
     8     6     7 ar
     9     7     8 ar
    10     8     9 1
    11     9    10 1
    12    10    11 ar
    13    10    29 ar
    14    11    12 ar
    15    12    13 1
    16    12    24 ar
    17    13    14 1
    18    14    15 ar
    19    14    20 ar
    20    15    16 ar
    21    16    17 ar
    22    17    18 ar
    23    18    19 1
    24    18    20 ar
    25    20    21 1
    26    21    22 2
    27    21    23 1
    28    24    25 1
    29    24    28 ar
    30    25    26 2
    31    26    27 1
    32    27    28 1
    33    28    29 ar
    34    30    31 1
    35    30    35 1
    36    31    32 1
    37    32    33 1
    38    33    34 1
    39    33    36 1
    40    34    35 1
    41    36    37 1
    42    36    38 1
    43     1    39 1
    44     1    40 1
    45     1    41 1
    46     4    42 1
    47     6    43 1
    48     7    44 1
    49     9    45 1
    50    13    46 1
    51    15    47 1
    52    16    48 1
    53    17    49 1
    54    23    50 1
    55    23    51 1
    56    25    52 1
    57    26    53 1
    58    27    54 1
    59    31    55 1
    60    31    56 1
    61    32    57 1
    62    32    58 1
    63    34    59 1
    64    34    60 1
    65    35    61 1
    66    35    62 1
    67    36    63 1
    68    37    64 1
    69    37    65 1
    70    37    66 1
    71    38    67 1
    72    38    68 1
    73    38    69 1
    74    70    23 1
@<TRIPOS>SUBSTRUCTURE
     1 GS3         1 TEMP              0 ****  ****    0 ROOT
