@<TRIPOS>MOLECULE
GS5
   52    55     1     0     0
SMALL
bcc


@<TRIPOS>ATOM
      1 Cl           0.0000     0.0000     0.0000 cl         1 GS5      -0.009400
      2 C13          1.7210     0.0000     0.0000 ca         1 GS5      -0.052600
      3 C14          2.4140     0.0000     1.2020 ca         1 GS5      -0.075000
      4 C11          3.8110    -0.0000     1.2200 ca         1 GS5      -0.054000
      5 C6           4.5060     0.0010    -0.0050 ca         1 GS5       0.034900
      6 C5           3.8310     0.0000    -1.2300 ca         1 GS5      -0.105800
      7 C10          2.4150     0.0000    -1.2140 ca         1 GS5      -0.035000
      8 C2           4.7520     0.0010    -2.3310 cc         1 GS5       0.080800
      9 C1           6.0570     0.0010    -1.9240 cd         1 GS5      -0.087500
     10 S4           7.5900     0.0000    -2.8050 sy         1 GS5       0.970800
     11 O8           7.2930     0.1200    -4.2190 o          1 GS5      -0.542300
     12 O9           8.4500     0.9710    -2.1560 o          1 GS5      -0.542300
     13 N7           8.1760    -1.5660    -2.4830 n7         1 GS5      -0.542100
     14 C12          7.3940    -2.7460    -2.8930 c3         1 GS5       0.121500
     15 C15          7.1140    -3.5390    -1.6410 c          1 GS5       0.625500
     16 O19          6.2870    -3.2360    -0.7930 o          1 GS5      -0.640500
     17 C16          8.2260    -3.6910    -3.7530 c3         1 GS5      -0.055400
     18 C20          8.9100    -4.6050    -2.7520 c3         1 GS5       0.048000
     19 N18          7.9980    -4.6170    -1.6310 n          1 GS5      -0.178800
     20 C21          8.1360    -5.5750    -0.5560 c3         1 GS5      -0.041300
     21 C23          7.9440    -6.9980    -1.0260 c3         1 GS5      -0.002100
     22 C22          9.5390    -5.3650    -0.0450 c          1 GS5       0.581100
     23 O25         10.4540    -6.0680    -0.4830 o          1 GS5      -0.624100
     24 N24          9.7110    -4.3630     0.9080 n          1 GS5      -0.164800
     25 C26         11.0410    -4.0920     1.4520 c3         1 GS5      -0.005000
     26 C28         11.2990    -2.5920     1.4960 c3         1 GS5       0.198900
     27 O30         10.2590    -1.9320     2.2220 os         1 GS5      -0.394600
     28 C29          8.9920    -2.1180     1.5860 c3         1 GS5       0.198900
     29 C27          8.6320    -3.5980     1.5410 c3         1 GS5      -0.005000
     30 S3           6.2160     0.0010    -0.2310 ss         1 GS5      -0.094500
     31 H14          1.8670     0.0000     2.1370 ha         1 GS5       0.116000
     32 H10          1.8660     0.0000    -2.1470 ha         1 GS5       0.115000
     33 H11          4.3500    -0.0000     2.1590 ha         1 GS5       0.119000
     34 H2           4.4470     0.0020    -3.3700 ha         1 GS5       0.129000
     35 H7           9.0700    -1.6850    -2.0490 hn         1 GS5       0.347800
     36 H12          6.4750    -2.4650    -3.3930 h1         1 GS5       0.066700
     37 H161         7.5840    -4.2650    -4.4110 hc         1 GS5       0.040700
     38 H162         8.9620    -3.1350    -4.3220 hc         1 GS5       0.040700
     39 H201         9.0220    -5.6010    -3.1610 h1         1 GS5       0.032200
     40 H202         9.8690    -4.1950    -2.4570 h1         1 GS5       0.032200
     41 H21          7.4240    -5.3500     0.2290 h1         1 GS5       0.064700
     42 H231         7.9370    -7.6630    -0.1710 hc         1 GS5       0.020700
     43 H232         8.7550    -7.2710    -1.6900 hc         1 GS5       0.020700
     44 H233         7.0020    -7.0790    -1.5550 hc         1 GS5       0.020700
     45 H261        11.7860    -4.5640     0.8240 h1         1 GS5       0.040450
     46 H262        11.1040    -4.4940     2.4560 h1         1 GS5       0.040450
     47 H271         8.4830    -3.9600     2.5520 h1         1 GS5       0.040450
     48 H272         7.7200    -3.7270     0.9710 h1         1 GS5       0.040450
     49 H281        12.2480    -2.4080     1.9860 h1         1 GS5       0.016450
     50 H282        11.3300    -2.2050     0.4850 h1         1 GS5       0.016450
     51 H291         9.0410    -1.7330     0.5750 h1         1 GS5       0.016450
     52 H292         8.2320    -1.5830     2.1420 h1         1 GS5       0.016450
@<TRIPOS>BOND
     1     1     2 1   
     2     2     3 ar  
     3     2     7 ar  
     4     3     4 ar  
     5     3    31 1   
     6     4     5 ar  
     7     4    33 1   
     8     5     6 ar  
     9     5    30 1   
    10     6     7 ar  
    11     6     8 1   
    12     7    32 1   
    13     8     9 2   
    14     8    34 1   
    15     9    10 1   
    16     9    30 1   
    17    10    11 2   
    18    10    12 2   
    19    10    13 1   
    20    13    14 1   
    21    13    35 1   
    22    14    15 1   
    23    14    17 1   
    24    14    36 1   
    25    15    16 2   
    26    15    19 1   
    27    17    18 1   
    28    17    37 1   
    29    17    38 1   
    30    18    19 1   
    31    18    39 1   
    32    18    40 1   
    33    19    20 1   
    34    20    21 1   
    35    20    22 1   
    36    20    41 1   
    37    21    42 1   
    38    21    43 1   
    39    21    44 1   
    40    22    23 2   
    41    22    24 1   
    42    24    25 1   
    43    24    29 1   
    44    25    26 1   
    45    25    45 1   
    46    25    46 1   
    47    26    27 1   
    48    26    49 1   
    49    26    50 1   
    50    27    28 1   
    51    28    29 1   
    52    28    51 1   
    53    28    52 1   
    54    29    47 1   
    55    29    48 1   
@<TRIPOS>SUBSTRUCTURE
     1 GS5         1 TEMP              0 ****  ****    0 ROOT
