@<TRIPOS>MOLECULE
GS6
   52    55     1     0     0
SMALL
bcc


@<TRIPOS>ATOM
      1 Cl           0.0000     0.0000     0.0000 cl         1 GS6      -0.009400
      2 C1           1.7220     0.0000     0.0000 ca         1 GS6      -0.016600
      3 C2           2.4110     0.0000     1.2140 ca         1 GS6      -0.068000
      4 C3           3.8200    -0.0010     1.1970 ca         1 GS6       0.046900
      5 C4           4.5370    -0.0020    -0.0030 ca         1 GS6      -0.118800
      6 C5           5.9530    -0.0030     0.2370 cc         1 GS6       0.081800
      7 C9           3.8090    -0.0020    -1.2170 ca         1 GS6      -0.022000
      8 C10          2.4120    -0.0010    -1.2040 ca         1 GS6      -0.113000
      9 C6           6.2590    -0.0020     1.5700 cd         1 GS6      -0.090500
     10 S1           7.7920    -0.0030     2.4500 sy         1 GS6       0.970800
     11 O2           8.8640     0.1160     1.4810 o          1 GS6      -0.542800
     12 O1           7.6660     0.9680     3.5200 o          1 GS6      -0.542800
     13 N1           7.8100    -1.5690     3.1180 n7         1 GS6      -0.542100
     14 C12          7.7700    -2.7490     2.2370 c3         1 GS6       0.121500
     15 C13          8.9320    -3.6940     2.5210 c3         1 GS6      -0.054400
     16 C14          8.4110    -4.6080     3.6180 c3         1 GS6       0.047000
     17 C15          6.5470    -3.5420     2.6250 c          1 GS6       0.625500
     18 O3           5.3980    -3.2390     2.3390 o          1 GS6      -0.639500
     19 N2           6.9840    -4.6200     3.3940 n          1 GS6      -0.179800
     20 C16          6.1240    -5.5780     4.0560 c3         1 GS6      -0.041300
     21 C17          6.4330    -7.0000     3.6530 c3         1 GS6      -0.003100
     22 C18          6.3900    -5.3680     5.5250 c          1 GS6       0.581100
     23 O4           7.2290    -6.0710     6.0940 o          1 GS6      -0.624100
     24 N3           5.6540    -4.3660     6.1540 n          1 GS6      -0.164800
     25 C19          5.8540    -4.0940     7.5760 c3         1 GS6      -0.004500
     26 C20          5.9460    -2.5950     7.8220 c3         1 GS6       0.198900
     27 O5           4.7950    -1.9340     7.2890 os         1 GS6      -0.394600
     28 C22          4.7060    -2.1210     5.8740 c3         1 GS6       0.198900
     29 C23          4.5630    -3.6000     5.5410 c3         1 GS6      -0.004500
     30 S2           4.8770    -0.0020     2.5600 ss         1 GS6      -0.092500
     31 H2           1.8810     0.1940     2.1380 ha         1 GS6       0.127000
     32 H10          1.8640    -0.0010    -2.1390 ha         1 GS6       0.120000
     33 H5           6.6960    -0.0040    -0.5510 ha         1 GS6       0.129000
     34 H9           4.3380    -0.0020    -2.1630 ha         1 GS6       0.107000
     35 H1           7.8880    -1.6880     4.1090 hn         1 GS6       0.347800
     36 H12          7.7380    -2.4680     1.1910 h1         1 GS6       0.066700
     37 H131         9.1760    -4.2680     1.6360 hc         1 GS6       0.040200
     38 H132         9.7930    -3.1380     2.8710 hc         1 GS6       0.040200
     39 H141         8.8210    -5.6050     3.5080 h1         1 GS6       0.031700
     40 H142         8.6400    -4.1980     4.5940 h1         1 GS6       0.031700
     41 H16          5.0880    -5.3520     3.8360 h1         1 GS6       0.064700
     42 H171         5.6910    -7.6650     4.0780 hc         1 GS6       0.020700
     43 H172         6.4150    -7.0820     2.5730 hc         1 GS6       0.020700
     44 H173         7.4160    -7.2740     4.0190 hc         1 GS6       0.020700
     45 H191         6.7720    -4.5660     7.9040 h1         1 GS6       0.040700
     46 H192         5.0180    -4.4960     8.1360 h1         1 GS6       0.040700
     47 H231         3.6160    -3.9620     5.9210 h1         1 GS6       0.040700
     48 H232         4.5960    -3.7290     4.4660 h1         1 GS6       0.040700
     49 H201         6.8350    -2.2080     7.3390 h1         1 GS6       0.016450
     50 H202         6.0020    -2.4100     8.8880 h1         1 GS6       0.016450
     51 H221         5.6040    -1.7350     5.4070 h1         1 GS6       0.016450
     52 H222         3.8430    -1.5850     5.4970 h1         1 GS6       0.016450
@<TRIPOS>BOND
     1     1     2 1   
     2     2     3 ar  
     3     2     8 ar  
     4     3     4 ar  
     5     3    31 1   
     6     4     5 ar  
     7     4    30 1   
     8     5     6 1   
     9     5     7 ar  
    10     6     9 2   
    11     6    33 1   
    12     7     8 ar  
    13     7    34 1   
    14     8    32 1   
    15     9    10 1   
    16     9    30 1   
    17    10    11 2   
    18    10    12 2   
    19    10    13 1   
    20    13    14 1   
    21    13    35 1   
    22    14    15 1   
    23    14    17 1   
    24    14    36 1   
    25    15    16 1   
    26    15    37 1   
    27    15    38 1   
    28    16    19 1   
    29    16    39 1   
    30    16    40 1   
    31    17    18 2   
    32    17    19 1   
    33    19    20 1   
    34    20    21 1   
    35    20    22 1   
    36    20    41 1   
    37    21    42 1   
    38    21    43 1   
    39    21    44 1   
    40    22    23 2   
    41    22    24 1   
    42    24    25 1   
    43    24    29 1   
    44    25    26 1   
    45    25    45 1   
    46    25    46 1   
    47    26    27 1   
    48    26    49 1   
    49    26    50 1   
    50    27    28 1   
    51    28    29 1   
    52    28    51 1   
    53    28    52 1   
    54    29    47 1   
    55    29    48 1   
@<TRIPOS>SUBSTRUCTURE
     1 GS6         1 TEMP              0 ****  ****    0 ROOT
