@<TRIPOS>MOLECULE
molecule
   56    59     1     0     0
SMALL
bcc


@<TRIPOS>ATOM
      1 C11          0.0000     0.0000     0.0000 ca         1 GS7       0.777200
      2 N2           1.3280     0.0000     0.0000 nb         1 GS7      -0.864000
      3 C19         -0.6690    -0.0010     1.2340 ca         1 GS7      -0.432400
      4 C22          0.0920    -0.0010     2.4170 ca         1 GS7       0.566800
      5 N5          -0.7890    -0.0020     3.4640 na         1 GS7      -0.265100
      6 C21         -2.0770    -0.0020     2.9930 cc         1 GS7      -0.079100
      7 C20         -2.0700    -0.0010     1.6510 cd         1 GS7      -0.191200
      8 N6           1.4220    -0.0010     2.3210 nb         1 GS7      -0.816000
      9 C10          2.0110     0.0000     1.1380 ca         1 GS7       0.992900
     10 N1           3.3960     0.0000     1.0850 nu         1 GS7      -0.729300
     11 C9           4.1430    -0.1460     2.2610 ca         1 GS7       0.131600
     12 C2           5.4530     0.3250     2.3190 ca         1 GS7       0.113100
     13 O1           6.0090     0.9270     1.2340 os         1 GS7      -0.345900
     14 C1           7.3570     1.3850     1.3670 c3         1 GS7       0.128700
     15 C8           3.5780    -0.7540     3.3720 ca         1 GS7      -0.101000
     16 C7           4.3160    -0.8960     4.5310 ca         1 GS7      -0.125000
     17 C4           5.6180    -0.4330     4.5880 ca         1 GS7      -0.060300
     18 C3           6.1860     0.1790     3.4850 ca         1 GS7      -0.177000
     19 C5           6.4180    -0.5900     5.8550 c3         1 GS7      -0.153300
     20 S            7.3030    -2.1720     5.8200 s6         1 GS7       1.100000
     21 O2           6.3480    -3.2260     5.8450 o          1 GS7      -0.607800
     22 O3           8.2620    -2.1320     4.7730 o          1 GS7      -0.607800
     23 C6           8.1780    -2.1480     7.4090 c3         1 GS7      -0.227300
     24 O4          -2.1150    -2.0790    -3.4450 o          1 GS7      -0.374100
     25 N4          -3.0720    -0.0900    -3.7010 nz         1 GS7      -0.695400
     26 C17         -0.6380    -0.2810    -3.5940 ca         1 GS7      -0.338600
     27 C16          0.0480    -0.1280    -4.8040 ca         1 GS7       0.194900
     28 F           -0.5230    -0.5300    -5.9610 f          1 GS7      -0.129900
     29 C15          1.3110     0.4330    -4.8140 ca         1 GS7      -0.179000
     30 C14          1.9000     0.8450    -3.6310 ca         1 GS7      -0.024000
     31 C13          1.2350     0.7010    -2.4300 ca         1 GS7      -0.153000
     32 C12         -0.0360     0.1450    -2.3990 ca         1 GS7       0.248600
     33 N3          -0.7090     0.0050    -1.1900 nu         1 GS7      -0.761300
     34 HN5         -0.5310    -0.0020     4.4310 hn         1 GS7       0.321700
     35 H21         -2.9670    -0.0030     3.6110 h4         1 GS7       0.184000
     36 H20         -2.9370    -0.0010     1.0010 ha         1 GS7       0.135000
     37 HN1          3.8630     0.0790     0.2030 hn         1 GS7       0.476800
     38 H1           8.0060     0.5420     1.5700 h1         1 GS7       0.048367
     39 H1A          7.6670     1.8660     0.4480 h1         1 GS7       0.048367
     40 H1B          7.4180     2.0940     2.1840 h1         1 GS7       0.048367
     41 H8           2.5830    -1.1790     3.3090 ha         1 GS7       0.173000
     42 H7           3.8720    -1.3660     5.4000 ha         1 GS7       0.144000
     43 H3           7.1920     0.5780     3.5460 ha         1 GS7       0.151000
     44 H5           5.7510    -0.5680     6.7080 h1         1 GS7       0.101200
     45 H5A          7.1320     0.2210     5.9340 h1         1 GS7       0.101200
     46 H6           8.8410    -1.2920     7.4430 h1         1 GS7       0.099367
     47 H6A          7.4590    -2.0790     8.2160 h1         1 GS7       0.099367
     48 H6B          8.7560    -3.0580     7.5170 h1         1 GS7       0.099367
     49 HN4         -3.5080    -0.2620    -4.5850 hn         1 GS7       0.485467
     50 HN4A        -3.7190    -0.2910    -2.9640 hn         1 GS7       0.485467
     51 H15          1.8410     0.5510    -5.7510 ha         1 GS7       0.175000
     52 H14          2.8910     1.2820    -3.6480 ha         1 GS7       0.169000
     53 H13          1.7040     1.0290    -1.5100 ha         1 GS7       0.215000
     54 HN3         -1.7070    -0.0620    -1.1780 hn         1 GS7       0.437800
     55 H43         -2.6060     0.7950    -3.7250 hn         1 GS7       0.485467
     56 C18         -1.9840    -0.8770    -3.5760 c          1 GS7       0.500700
@<TRIPOS>BOND
     1     1     2 ar
     2     1     3 ar
     3     1    33 1
     4     2     9 ar
     5     3     4 ar
     6     3     7 1
     7     4     5 1
     8     4     8 ar
     9     5     6 1
    10     6     7 2
    11     8     9 ar
    12     9    10 1
    13    10    11 1
    14    11    12 ar
    15    11    15 ar
    16    12    13 1
    17    12    18 ar
    18    13    14 1
    19    15    16 ar
    20    16    17 ar
    21    17    18 ar
    22    17    19 1
    23    19    20 1
    24    20    21 2
    25    20    22 2
    26    20    23 1
    27    24    56 2
    28    56    25 1
    29    56    26 1
    30    26    27 ar
    31    26    32 ar
    32    27    28 1
    33    27    29 ar
    34    29    30 ar
    35    30    31 ar
    36    31    32 ar
    37    32    33 1
    38     5    34 1
    39     6    35 1
    40     7    36 1
    41    10    37 1
    42    14    38 1
    43    14    39 1
    44    14    40 1
    45    15    41 1
    46    16    42 1
    47    18    43 1
    48    19    44 1
    49    19    45 1
    50    23    46 1
    51    23    47 1
    52    23    48 1
    53    25    49 1
    54    25    50 1
    55    29    51 1
    56    30    52 1
    57    31    53 1
    58    33    54 1
    59    55    25 1
@<TRIPOS>SUBSTRUCTURE
     1 GS7         1 TEMP              0 ****  ****    0 ROOT
