@<TRIPOS>MOLECULE
GS8
   37    36     1     0     0
SMALL
bcc


@<TRIPOS>ATOM
      1 CB1          0.0000     0.0000     0.0000 c3         1 GS8      -0.005400
      2 CG1         -0.5090    -1.3070     0.6100 c3         1 GS8      -0.112400
      3 CD1         -2.0160    -1.3080     0.6100 c          1 GS8       0.560100
      4 OE1         -2.6230    -0.3560     0.1650 o          1 GS8      -0.610100
      5 C1           2.0330     1.2320    -0.7100 c          1 GS8       0.964600
      6 O11          2.0660     1.2650    -2.0510 o          1 GS8      -0.819800
      7 O12          2.4050     2.1870    -0.0710 o          1 GS8      -0.819800
      8 N1           2.0200     0.0000     1.3850 nz         1 GS8       0.039400
      9 CA1          1.5310     0.0000     0.0000 c3         1 GS8      -0.201500
     10 N2          -2.6900    -2.3660     1.1030 ns         1 GS8      -0.168900
     11 CA2         -4.1560    -2.3660     1.1020 c3         1 GS8      -0.049300
     12 CB2         -4.6650    -2.8590    -0.2540 c3         1 GS8       0.016700
     13 SG2         -4.0600    -1.7590    -1.5640 ss         1 GS8      -0.011300
     14 O13         -2.5960    -2.1530    -1.6920 oh         1 GS8      -0.558800
     15 C2          -4.6570    -3.2800     2.1910 c          1 GS8       0.530100
     16 O2          -3.8690    -3.8730     2.8970 o          1 GS8      -0.704100
     17 N3          -5.9830    -3.4380     2.3780 ns         1 GS8      -0.122900
     18 CA3         -6.4710    -4.3260     3.4360 c3         1 GS8      -0.079000
     19 C3          -7.9780    -4.3260     3.4360 c          1 GS8       0.971600
     20 O32         -8.6490    -5.0740     4.3270 o          1 GS8      -0.886300
     21 O31         -8.5820    -3.6540     2.6350 o          1 GS8      -0.886300
     22 HA31        -6.1100    -3.9760     4.3960 h1         1 GS8       0.026700
     23 HA32        -6.1090    -5.3320     3.2590 h1         1 GS8       0.026700
     24 H3          -6.6330    -2.9250     1.8160 hn         1 GS8       0.199500
     25 HA2         -4.5170    -1.3600     1.2800 h1         1 GS8       0.076700
     26 HB21        -4.3030    -3.8650    -0.4310 h1         1 GS8       0.060200
     27 HB22        -5.7480    -2.8600    -0.2540 h1         1 GS8       0.060200
     28 H2          -2.1900    -3.1570     1.4570 hn         1 GS8       0.191500
     29 H13         -2.4080    -2.3770    -2.5880 ho         1 GS8       0.421000
     30 HG11        -0.1480    -1.3960     1.6270 hc         1 GS8       0.012200
     31 HG12        -0.1480    -2.1440     0.0240 hc         1 GS8       0.012200
     32 HB11        -0.3610     0.0890    -1.0170 hc         1 GS8       0.068700
     33 HB12        -0.3610     0.8370     0.5860 hc         1 GS8       0.068700
     34 HA1          1.8920    -0.8840    -0.5110 hx         1 GS8       0.081700
     35 H11N         2.5930     0.8070     1.5360 hn         1 GS8       0.216133
     36 H12N         2.5600    -0.8270     1.5480 hn         1 GS8       0.216133
     37 H131         1.2420     0.0210     2.0140 hn         1 GS8       0.216133
@<TRIPOS>BOND
     1     1     2 1   
     2     1     9 1   
     3     1    32 1   
     4     1    33 1   
     5     2     3 1   
     6     2    30 1   
     7     2    31 1   
     8     3     4 2   
     9     3    10 1   
    10     5     6 1   
    11     5     7 1   
    12     5     9 1   
    13     8     9 1   
    14     8    35 1   
    15     8    36 1   
    16     8    37 1   
    17     9    34 1   
    18    10    11 1   
    19    10    28 1   
    20    11    12 1   
    21    11    15 1   
    22    11    25 1   
    23    12    13 1   
    24    12    26 1   
    25    12    27 1   
    26    13    14 1   
    27    14    29 1   
    28    15    16 2   
    29    15    17 1   
    30    17    18 1   
    31    17    24 1   
    32    18    19 1   
    33    18    22 1   
    34    18    23 1   
    35    19    20 1   
    36    19    21 1   
@<TRIPOS>SUBSTRUCTURE
     1 GS8         1 TEMP              0 ****  ****    0 ROOT
