@<TRIPOS>MOLECULE
molecule
   37    36     1     0     0
SMALL
bcc


@<TRIPOS>ATOM
      1 CB1          0.0000     0.0000     0.0000 c3         1 GS8      -0.072400
      2 CG1         -0.5090    -1.3070     0.6100 c3         1 GS8      -0.171400
      3 CD1         -2.0160    -1.3080     0.6100 c          1 GS8       0.660100
      4 OE1         -2.6230    -0.3560     0.1650 o          1 GS8      -0.580100
      5 C1           2.0330     1.2320    -0.7100 c          1 GS8       0.876600
      6 O11          2.0660     1.2650    -2.0510 o          1 GS8      -0.780300
      7 O12          2.4050     2.1870    -0.0710 o          1 GS8      -0.780300
      8 N1           2.0200     0.0000     1.3850 nz         1 GS8      -0.804600
      9 CA1          1.5310     0.0000     0.0000 c3         1 GS8      -0.022500
     10 N2          -2.6900    -2.3660     1.1030 ns         1 GS8      -0.565900
     11 CA2         -4.1560    -2.3660     1.1020 c3         1 GS8       0.046700
     12 CB2         -4.6650    -2.8590    -0.2540 c3         1 GS8      -0.063300
     13 SG2         -4.0600    -1.7590    -1.5640 ss         1 GS8       0.044700
     14 O13         -2.5960    -2.1530    -1.6920 oh         1 GS8      -0.573800
     15 C2          -4.6570    -3.2800     2.1910 c          1 GS8       0.631100
     16 O2          -3.8690    -3.8730     2.8970 o          1 GS8      -0.655100
     17 N3          -5.9830    -3.4380     2.3780 ns         1 GS8      -0.537900
     18 CA3         -6.4710    -4.3260     3.4360 c3         1 GS8      -0.007000
     19 C3          -7.9780    -4.3260     3.4360 c          1 GS8       0.883600
     20 O32         -8.6490    -5.0740     4.3270 o          1 GS8      -0.840800
     21 O31         -8.5820    -3.6540     2.6350 o          1 GS8      -0.840800
     22 HA31        -6.1100    -3.9760     4.3960 h1         1 GS8       0.047700
     23 HA32        -6.1090    -5.3320     3.2590 h1         1 GS8       0.047700
     24 H3          -6.6330    -2.9250     1.8160 hn         1 GS8       0.336500
     25 HA2         -4.5170    -1.3600     1.2800 h1         1 GS8       0.100700
     26 HB21        -4.3030    -3.8650    -0.4310 h1         1 GS8       0.084200
     27 HB22        -5.7480    -2.8600    -0.2540 h1         1 GS8       0.084200
     28 H2          -2.1900    -3.1570     1.4570 hn         1 GS8       0.328500
     29 H13         -2.4080    -2.3770    -2.5880 ho         1 GS8       0.422000
     30 HG11        -0.1480    -1.3960     1.6270 hc         1 GS8       0.042200
     31 HG12        -0.1480    -2.1440     0.0240 hc         1 GS8       0.042200
     32 HB11        -0.3610     0.0890    -1.0170 hc         1 GS8       0.101200
     33 HB12        -0.3610     0.8370     0.5860 hc         1 GS8       0.101200
     34 HA1          1.8920    -0.8840    -0.5110 hx         1 GS8       0.098700
     35 H11N         2.5930     0.8070     1.5360 hn         1 GS8       0.438467
     36 H12N         2.5600    -0.8270     1.5480 hn         1 GS8       0.438467
     37 H131         1.2420     0.0210     2.0140 hn         1 GS8       0.438467
@<TRIPOS>BOND
     1    21    19 1
     2    19    20 1
     3    19    18 1
     4    18    17 1
     5    17    15 1
     6    15    16 2
     7    15    11 1
     8    11    12 1
     9    11    10 1
    10    12    13 1
    11    13    14 1
    12    10     3 1
    13     3     4 2
    14     3     2 1
    15     2     1 1
    16     1     9 1
    17     9     8 1
    18     9     5 1
    19     5     6 1
    20     5     7 1
    21    18    22 1
    22    18    23 1
    23    17    24 1
    24    11    25 1
    25    12    26 1
    26    12    27 1
    27    10    28 1
    28    14    29 1
    29     2    30 1
    30     2    31 1
    31     1    32 1
    32     1    33 1
    33     9    34 1
    34     8    35 1
    35     8    36 1
    36    37     8 1
@<TRIPOS>SUBSTRUCTURE
     1 GS8         1 TEMP              0 ****  ****    0 ROOT
