@<TRIPOS>MOLECULE
GS9
   40    38     1     0     0
SMALL
bcc


@<TRIPOS>ATOM
      1 C1          1.8440    0.3980   -0.7200 c3        1 GS9     -0.193000
      2 O5          1.9440   -0.4040   -1.8830 oh        1 GS9     -0.352000
      3 S1          0.5840    1.6690   -0.8640 ss        1 GS9      0.097000
      4 C2          1.3740   -0.4240    0.4460 c1        1 GS9      0.042000
      5 O2          1.1270   -1.6780    0.2830 oh        1 GS9     -0.159000
      6 C3         -0.3920   -1.4040    3.0400 c2        1 GS9      0.164000
      7 O3         -1.5970   -1.4600    3.2820 o         1 GS9     -0.291000
      8 C4          0.5380   -2.5620    3.3880 c3        1 GS9      0.072000
      9 O4         -0.1760   -3.7790    3.5130 oh        1 GS9     -0.307000
     10 C5          1.3030   -2.2440    4.5720 c1        1 GS9     -0.201000
     11 C80         1.9050    3.6890   -2.1290 c3        1 GS9     -0.193000
     12 C6          1.9540   -1.9900    5.5430 c1        1 GS9     -0.178000
     13 C90         1.7680    4.8120   -3.0440 c1        1 GS9     -0.066000
     14 C7          1.0380    2.4670   -2.3970 c3        1 GS9     -0.216000
     15 C8         -0.2110    2.7450   -3.1340 c2        1 GS9     -0.060000
     16 C9         -0.4280    3.8960   -3.8170 c2        1 GS9     -0.106000
     17 C14         0.5750    4.9680   -3.7830 c2        1 GS9     -0.173000
     18 C13         0.3010    6.1500   -4.4570 c2        1 GS9     -0.005000
     19 C12        -0.7080    6.0990   -5.4270 c1        1 GS9     -0.050000
     20 C11        -1.8270    5.2580   -5.2980 c2        1 GS9     -0.177000
     21 C10        -1.6630    4.1280   -4.5430 c2        1 GS9     -0.040000
     22 H1          2.8180   -0.2700   -2.2720 ho        1 GS9      0.237000
     23 H2          2.8290    0.8790   -0.4730 h2        1 GS9      0.149000
     24 H5          1.2340   -2.7380    2.5090 h1        1 GS9      0.153000
     25 HA          1.2440   -2.0440   -0.6230 ho        1 GS9      0.205000
     26 H3         -0.6360   -3.1520    1.1330 ha        1 GS9      0.001000
     27 H4          0.0980   -0.5440    2.5310 h4        1 GS9      0.143000
     28 HB         -0.9370   -3.6120    4.0870 ho        1 GS9      0.216000
     29 H90         2.9850    3.3650   -2.1040 hc        1 GS9      0.139500
     30 H61C        4.2450    1.7960   -3.2530 ho        1 GS9      0.213000
     31 H62C        2.5280   -1.7620    6.4050 ha        1 GS9      0.224000
     32 HC          5.1130    1.3930   -2.0770 ho        1 GS9      0.213000
     33 H8          1.6380    1.7270   -3.0030 h1        1 GS9      0.139000
     34 H10        -0.9750    1.9480   -3.1010 ha        1 GS9      0.150000
     35 H11        -2.4210    3.3290   -4.5370 ha        1 GS9      0.144000
     36 H12        -2.7370    5.4480   -5.8840 ha        1 GS9      0.165000
     37 HD         -0.5760   -3.4000    0.5040 ha        1 GS9      0.001000
     38 H13         0.9200    7.0490   -4.3160 ha        1 GS9      0.179000
     39 O6          4.2200    1.3100   -2.4230 oh        1 GS9     -0.421000
     40 H80         1.6800    4.1100   -1.1020 hc        1 GS9      0.139500
@<TRIPOS>BOND
     1    1    2 1   
     2    1    3 1   
     3    1    4 1   
     4    1   23 1   
     5    2   22 1   
     6    3   14 1   
     7    4    5 1   
     8    5   25 1   
     9    6    7 1   
    10    6    8 1   
    11    6   27 1   
    12    8    9 1   
    13    8   10 1   
    14    8   24 1   
    15    9   28 1   
    16   10   12 1   
    17   11   13 1   
    18   11   14 1   
    19   11   29 1   
    20   11   40 1   
    21   12   31 1   
    22   13   17 1   
    23   14   15 1   
    24   14   33 1   
    25   15   16 1   
    26   15   34 1   
    27   16   17 1   
    28   16   21 1   
    29   17   18 1   
    30   18   19 1   
    31   18   38 1   
    32   19   20 1   
    33   20   21 1   
    34   20   36 1   
    35   21   35 1   
    36   26   37 1   
    37   30   39 1   
    38   32   39 1   
@<TRIPOS>SUBSTRUCTURE
     1 GS9         1 TEMP              0 ****  ****    0 ROOT
