@<TRIPOS>MOLECULE
molecule
   40    42     1     0     0
SMALL
bcc


@<TRIPOS>ATOM
      1 C1           0.0000     0.0000     0.0000 c3         1 GS9       0.205200
      2 O5           1.4290     0.0000     0.0000 os         1 GS9      -0.378600
      3 S1          -0.6040     0.0350    -1.7100 ss         1 GS9      -0.198000
      4 C2          -0.5090    -1.2640     0.6960 c3         1 GS9       0.129100
      5 O2          -1.9370    -1.2390     0.7490 oh         1 GS9      -0.597800
      6 C3           0.0550    -1.3170     2.1190 c3         1 GS9       0.127100
      7 O3          -0.3560    -2.5300     2.7520 oh         1 GS9      -0.591800
      8 C4           1.5840    -1.2650     2.0530 c3         1 GS9       0.102100
      9 O4           2.0720    -2.4180     1.3620 oh         1 GS9      -0.579800
     10 C5           2.0140     0.0000     1.3040 c3         1 GS9       0.138100
     11 C80          0.6690     2.4460    -1.4400 ca         1 GS9      -0.122000
     12 C6           3.5380     0.0280     1.1800 c3         1 GS9       0.151400
     13 C90          1.1080     3.6610    -1.8650 ca         1 GS9      -0.101000
     14 C7          -0.0530     1.6030    -2.2940 ca         1 GS9       0.039900
     15 C8          -0.3350     1.9870    -3.5880 ca         1 GS9      -0.106000
     16 C9           0.1070     3.2370    -4.0490 ca         1 GS9      -0.024000
     17 C14          0.8370     4.0850    -3.1780 ca         1 GS9      -0.040000
     18 C13          1.2770     5.3350    -3.6430 ca         1 GS9      -0.113000
     19 C12          0.9990     5.7150    -4.9200 ca         1 GS9      -0.130000
     20 C11          0.2830     4.8820    -5.7770 ca         1 GS9      -0.125000
     21 C10         -0.1610     3.6640    -5.3620 ca         1 GS9      -0.117000
     22 H1          -0.3590     0.8720     0.5330 h2         1 GS9       0.064700
     23 H2          -0.1780    -2.1370     0.1450 h1         1 GS9       0.085700
     24 H5           1.6750     0.8730     1.8490 h1         1 GS9       0.049700
     25 HA          -2.2830    -1.9670     0.2600 ho         1 GS9       0.417000
     26 H3          -0.3100    -0.4670     2.6830 h1         1 GS9       0.048700
     27 H4           1.9880    -1.2420     3.0580 h1         1 GS9       0.040700
     28 HB           2.4730    -3.0070     1.9780 ho         1 GS9       0.406000
     29 H90          1.6650     4.3020    -1.1920 ha         1 GS9       0.135000
     30 H61C         3.9810    -0.0610     2.1650 h1         1 GS9       0.038200
     31 H62C         3.8650    -0.7980     0.5610 h1         1 GS9       0.038200
     32 HC           4.8790     1.3610     0.6750 ho         1 GS9       0.404000
     33 H8          -1.0050     1.3910    -4.1960 ha         1 GS9       0.140000
     34 H10         -0.7170     3.0270    -6.0390 ha         1 GS9       0.133000
     35 H11          0.0750     5.2090    -6.7880 ha         1 GS9       0.127000
     36 H12          1.3410     6.6790    -5.2760 ha         1 GS9       0.127000
     37 HD          -0.7360    -2.3330     3.5930 ho         1 GS9       0.407000
     38 H13          1.8350     5.9930    -2.9890 ha         1 GS9       0.131000
     39 O6           3.9450     1.2620     0.5850 oh         1 GS9      -0.600800
     40 H80          0.8790     2.1270    -0.4260 ha         1 GS9       0.142000
@<TRIPOS>BOND
     1     1     2 1
     2     1     3 1
     3     1     4 1
     4     2    10 1
     5     3    14 1
     6     4     5 1
     7     4     6 1
     8     6     7 1
     9     6     8 1
    10     8     9 1
    11     8    10 1
    12    11    13 ar
    13    11    14 ar
    14    10    12 1
    15    13    17 ar
    16    18    17 ar
    17    39    12 1
    18    14    15 ar
    19    15    16 ar
    20    16    21 ar
    21    16    17 ar
    22    21    20 ar
    23    20    19 ar
    24    19    18 ar
    25     1    22 1
    26     4    23 1
    27    10    24 1
    28     7    37 1
    29     5    25 1
    30     6    26 1
    31     8    27 1
    32     9    28 1
    33    11    40 1
    34    13    29 1
    35    12    30 1
    36    12    31 1
    37    39    32 1
    38    15    33 1
    39    21    34 1
    40    20    35 1
    41    19    36 1
    42    18    38 1
@<TRIPOS>SUBSTRUCTURE
     1 GS9         1 TEMP              0 ****  ****    0 ROOT
