@<TRIPOS>MOLECULE
molecule
   49    49     1     0     0
SMALL
bcc


@<TRIPOS>ATOM
      1 N1           0.0000     0.0000     0.0000 nz         1 GSB      -0.792600
      2 CA1          1.4690     0.0000     0.0000 c3         1 GSB      -0.020500
      3 C1           1.9710     0.0000     1.4210 c          1 GSB       0.871600
      4 O11          3.1430    -0.5810     1.7180 o          1 GSB      -0.781300
      5 O12          1.3180     0.5240     2.2910 o          1 GSB      -0.781300
      6 CB1          1.9780     1.2480    -0.7220 c3         1 GSB      -0.075400
      7 CG1          1.4700     1.2480    -2.1650 c3         1 GSB      -0.181400
      8 CD1          1.9710     2.4780    -2.8760 c          1 GSB       0.668100
      9 OE1          2.6690     3.2760    -2.2870 o          1 GSB      -0.586100
     10 N2           1.6460     2.6890    -4.1670 ns         1 GSB      -0.578900
     11 CA2          2.1340     3.8850    -4.8570 c3         1 GSB       0.055700
     12 C2           1.1430     5.0060    -4.6850 c          1 GSB       0.633100
     13 O2           1.5240     6.1580    -4.6690 o          1 GSB      -0.624100
     14 N3          -0.1690     4.7300    -4.5470 ns         1 GSB      -0.542900
     15 CA3         -1.1340     5.8180    -4.3790 c3         1 GSB      -0.005000
     16 C3          -2.5210     5.2460    -4.2480 c          1 GSB       0.884600
     17 O31         -3.5730     6.0640    -4.0840 o          1 GSB      -0.848300
     18 O32         -2.6870     4.0500    -4.2900 o          1 GSB      -0.848300
     19 CB2          2.3050     3.5800    -6.3460 c3         1 GSB      -0.000300
     20 SG2          3.5000     2.2310    -6.5530 ss         1 GSB      -0.339200
     21 C'           3.5020     2.0880    -8.3620 c3         1 GSB       0.059000
     22 C1'          4.4520     0.9970    -8.7790 ca         1 GSB      -0.071300
     23 C2'          3.9980    -0.3040    -8.9080 ca         1 GSB      -0.111500
     24 C3'          4.8690    -1.3060    -9.2900 ca         1 GSB      -0.130000
     25 C4'          6.1960    -1.0090    -9.5430 ca         1 GSB      -0.128000
     26 C5'          6.6500     0.2900    -9.4150 ca         1 GSB      -0.130000
     27 C6'          5.7770     1.2930    -9.0380 ca         1 GSB      -0.111500
     28 HN11        -0.3340     0.9380     0.0980 hn         1 GSB       0.440467
     29 HN12        -0.3340    -0.5540     0.7640 hn         1 GSB       0.440467
     30 HA1          1.8300    -0.8850    -0.5100 hx         1 GSB       0.096700
     31 HB11         1.6170     2.1330    -0.2120 hc         1 GSB       0.102700
     32 HB12         3.0620     1.2490    -0.7220 hc         1 GSB       0.102700
     33 HG11         0.3860     1.2470    -2.1650 hc         1 GSB       0.048700
     34 HG12         1.8310     0.3630    -2.6750 hc         1 GSB       0.048700
     35 HN2          1.1190     2.0020    -4.6690 hn         1 GSB       0.318500
     36 HA2          3.0890     4.1800    -4.4370 h1         1 GSB       0.117700
     37 HN3         -0.4860     3.7810    -4.5850 hn         1 GSB       0.325500
     38 HA31        -1.0940     6.4730    -5.2410 h1         1 GSB       0.051200
     39 HA32        -0.8910     6.3820    -3.4870 h1         1 GSB       0.051200
     40 HB21         2.6660     4.4650    -6.8570 h1         1 GSB       0.075200
     41 HB22         1.3500     3.2860    -6.7660 h1         1 GSB       0.075200
     42 H'1          2.5030     1.8490    -8.7070 h1         1 GSB       0.064700
     43 H'2          3.8190     3.0280    -8.7980 h1         1 GSB       0.064700
     44 H2'          2.9580    -0.5360    -8.7100 ha         1 GSB       0.135000
     45 H3'          4.5130    -2.3240    -9.3910 ha         1 GSB       0.127500
     46 H4'          6.8800    -1.7950    -9.8410 ha         1 GSB       0.125000
     47 H5'          7.6880     0.5230    -9.6160 ha         1 GSB       0.127500
     48 H6'          6.1330     2.3110    -8.9380 ha         1 GSB       0.135000
     49 H13         -0.3340    -0.3720    -0.8670 hn         1 GSB       0.440467
@<TRIPOS>BOND
     1     1     2 1
     2     1    28 1
     3     1    29 1
     4     2     3 1
     5     2     6 1
     6     2    30 1
     7     3     4 1
     8     3     5 1
     9     6     7 1
    10     6    31 1
    11     6    32 1
    12     7     8 1
    13     7    33 1
    14     7    34 1
    15     8     9 2
    16     8    10 1
    17    10    11 1
    18    10    35 1
    19    11    12 1
    20    11    19 1
    21    11    36 1
    22    12    13 2
    23    12    14 1
    24    14    15 1
    25    14    37 1
    26    15    16 1
    27    15    38 1
    28    15    39 1
    29    16    17 1
    30    16    18 1
    31    19    20 1
    32    19    40 1
    33    19    41 1
    34    20    21 1
    35    21    22 1
    36    21    42 1
    37    21    43 1
    38    22    23 ar
    39    22    27 ar
    40    23    24 ar
    41    23    44 1
    42    24    25 ar
    43    24    45 1
    44    25    26 ar
    45    25    46 1
    46    26    27 ar
    47    26    47 1
    48    27    48 1
    49    49     1 1
@<TRIPOS>SUBSTRUCTURE
     1 GSB         1 TEMP              0 ****  ****    0 ROOT
