@<TRIPOS>MOLECULE
GSB
   49    49     1     0     0
SMALL
bcc


@<TRIPOS>ATOM
      1 N1           0.0000     0.0000     0.0000 nz         1 GSB       0.080400
      2 CA1          1.4690     0.0000     0.0000 c3         1 GSB      -0.205500
      3 C1           1.9710     0.0000     1.4210 c          1 GSB       0.961600
      4 O11          3.1430    -0.5810     1.7180 o          1 GSB      -0.825300
      5 O12          1.3180     0.5240     2.2910 o          1 GSB      -0.825300
      6 CB1          1.9780     1.2480    -0.7220 c3         1 GSB      -0.009400
      7 CG1          1.4700     1.2480    -2.1650 c3         1 GSB      -0.122400
      8 CD1          1.9710     2.4780    -2.8760 c          1 GSB       0.580100
      9 OE1          2.6690     3.2760    -2.2870 o          1 GSB      -0.621100
     10 N2           1.6460     2.6890    -4.1670 ns         1 GSB      -0.188900
     11 CA2          2.1340     3.8850    -4.8570 c3         1 GSB      -0.037300
     12 C2           1.1430     5.0060    -4.6850 c          1 GSB       0.532100
     13 O2           1.5240     6.1580    -4.6690 o          1 GSB      -0.663100
     14 N3          -0.1690     4.7300    -4.5470 ns         1 GSB      -0.145900
     15 CA3         -1.1340     5.8180    -4.3790 c3         1 GSB      -0.074000
     16 C3          -2.5210     5.2460    -4.2480 c          1 GSB       0.974600
     17 O31         -3.5730     6.0640    -4.0840 o          1 GSB      -0.894300
     18 O32         -2.6870     4.0500    -4.2900 o          1 GSB      -0.894300
     19 CB2          2.3050     3.5800    -6.3460 c3         1 GSB       0.073700
     20 SG2          3.5000     2.2310    -6.5530 ss         1 GSB      -0.404200
     21 C'           3.5020     2.0880    -8.3620 c3         1 GSB       0.144000
     22 C1'          4.4520     0.9970    -8.7790 ca         1 GSB      -0.076300
     23 C2'          3.9980    -0.3040    -8.9080 ca         1 GSB      -0.084000
     24 C3'          4.8690    -1.3060    -9.2900 ca         1 GSB      -0.102000
     25 C4'          6.1960    -1.0090    -9.5430 ca         1 GSB      -0.101000
     26 C5'          6.6500     0.2900    -9.4150 ca         1 GSB      -0.102000
     27 C6'          5.7770     1.2930    -9.0380 ca         1 GSB      -0.084000
     28 HN11        -0.3340     0.9380     0.0980 hn         1 GSB       0.212467
     29 HN12        -0.3340    -0.5540     0.7640 hn         1 GSB       0.212467
     30 HA1          1.8300    -0.8850    -0.5100 hx         1 GSB       0.080700
     31 HB11         1.6170     2.1330    -0.2120 hc         1 GSB       0.070200
     32 HB12         3.0620     1.2490    -0.7220 hc         1 GSB       0.070200
     33 HG11         0.3860     1.2470    -2.1650 hc         1 GSB       0.017700
     34 HG12         1.8310     0.3630    -2.6750 hc         1 GSB       0.017700
     35 HN2          1.1190     2.0020    -4.6690 hn         1 GSB       0.181500
     36 HA2          3.0890     4.1800    -4.4370 h1         1 GSB       0.092700
     37 HN3         -0.4860     3.7810    -4.5850 hn         1 GSB       0.186500
     38 HA31        -1.0940     6.4730    -5.2410 h1         1 GSB       0.029200
     39 HA32        -0.8910     6.3820    -3.4870 h1         1 GSB       0.029200
     40 HB21         2.6660     4.4650    -6.8570 h1         1 GSB       0.049700
     41 HB22         1.3500     3.2860    -6.7660 h1         1 GSB       0.049700
     42 H'1          2.5030     1.8490    -8.7070 h1         1 GSB       0.038700
     43 H'2          3.8190     3.0280    -8.7980 h1         1 GSB       0.038700
     44 H2'          2.9580    -0.5360    -8.7100 ha         1 GSB       0.109500
     45 H3'          4.5130    -2.3240    -9.3910 ha         1 GSB       0.101500
     46 H4'          6.8800    -1.7950    -9.8410 ha         1 GSB       0.099000
     47 H5'          7.6880     0.5230    -9.6160 ha         1 GSB       0.101500
     48 H6'          6.1330     2.3110    -8.9380 ha         1 GSB       0.109500
     49 H13         -0.3340    -0.3720    -0.8670 hn         1 GSB       0.212467
@<TRIPOS>BOND
     1     1     2 1   
     2     1    28 1   
     3     1    29 1   
     4     1    49 1   
     5     2     3 1   
     6     2     6 1   
     7     2    30 1   
     8     3     4 1   
     9     3     5 1   
    10     6     7 1   
    11     6    31 1   
    12     6    32 1   
    13     7     8 1   
    14     7    33 1   
    15     7    34 1   
    16     8     9 2   
    17     8    10 1   
    18    10    11 1   
    19    10    35 1   
    20    11    12 1   
    21    11    19 1   
    22    11    36 1   
    23    12    13 2   
    24    12    14 1   
    25    14    15 1   
    26    14    37 1   
    27    15    16 1   
    28    15    38 1   
    29    15    39 1   
    30    16    17 1   
    31    16    18 1   
    32    19    20 1   
    33    19    40 1   
    34    19    41 1   
    35    20    21 1   
    36    21    22 1   
    37    21    42 1   
    38    21    43 1   
    39    22    23 ar  
    40    22    27 ar  
    41    23    24 ar  
    42    23    44 1   
    43    24    25 ar  
    44    24    45 1   
    45    25    26 ar  
    46    25    46 1   
    47    26    27 ar  
    48    26    47 1   
    49    27    48 1   
@<TRIPOS>SUBSTRUCTURE
     1 GSB         1 TEMP              0 ****  ****    0 ROOT
