@<TRIPOS>MOLECULE
GSE
   29    28     1     0     0
SMALL
bcc


@<TRIPOS>ATOM
      1 C1           0.0000     0.0000     0.0000 c3         1 GSE       0.237400
      2 O11         -0.4780    -0.0000    -1.3460 os         1 GSE      -0.466200
      3 O12         -2.6930     0.0000    -2.7600 os         1 GSE      -0.510200
      4 C2           1.5290     0.0000     0.0000 c3         1 GSE       0.166100
      5 C3           2.0410     0.0000     1.4410 c3         1 GSE       0.203400
      6 O31          3.4700    -0.0010     1.4400 oh         1 GSE      -0.599800
      7 P           -2.0860     0.0000    -1.2710 p5         1 GSE       0.910800
      8 O14         -2.5870    -1.3120    -0.4850 o          1 GSE      -0.668500
      9 O13         -2.5440     1.2100    -0.5510 o          1 GSE      -0.668500
     10 O21          2.0040    -1.1680    -0.6730 oh         1 GSE      -0.572800
     11 C11         -4.1150     0.0010    -2.6260 c3         1 GSE       0.249400
     12 C12         -4.7600    -0.0000    -4.0130 c3         1 GSE      -0.217500
     13 N           -4.3360     1.1980    -4.7500 nz         1 GSE       0.097400
     14 C13         -6.2600     0.0020    -3.8720 c          1 GSE       0.970600
     15 O16         -6.9290    -1.1600    -3.8080 o          1 GSE      -0.845800
     16 O15         -6.8600     1.0470    -3.8160 o          1 GSE      -0.845800
     17 H11         -0.3610     0.8840     0.5110 h1         1 GSE       0.018200
     18 H12A        -0.3610    -0.8840     0.5110 h1         1 GSE       0.018200
     19 H2           1.8910     0.8840    -0.5120 h1         1 GSE      -0.005300
     20 H31          1.6810     0.8850     1.9520 h1         1 GSE      -0.008300
     21 H32          1.6800    -0.8840     1.9520 h1         1 GSE      -0.008300
     22 HO1          3.7850     0.0910     2.3240 ho         1 GSE       0.376000
     23 HO2          2.5200    -0.9130    -1.4190 ho         1 GSE       0.378000
     24 H111        -4.4270    -0.8820    -2.0820 h1         1 GSE       0.051700
     25 H112        -4.4260     0.8860    -2.0850 h1         1 GSE       0.051700
     26 H12         -4.4490    -0.8860    -4.5550 hx         1 GSE       0.081700
     27 HN1         -3.3750     1.1070    -5.0120 hn         1 GSE       0.202467
     28 HN2         -4.4480     2.0050    -4.1680 hn         1 GSE       0.202467
     29 HN3         -4.8970     1.3000    -5.5730 hn         1 GSE       0.202467
@<TRIPOS>BOND
     1     1     2 1   
     2     1     4 1   
     3     1    17 1   
     4     1    18 1   
     5     2     7 1   
     6     3     7 1   
     7     3    11 1   
     8     4     5 1   
     9     4    10 1   
    10     4    19 1   
    11     5     6 1   
    12     5    20 1   
    13     5    21 1   
    14     6    22 1   
    15     7     8 1   
    16     7     9 1   
    17    10    23 1   
    18    11    12 1   
    19    11    24 1   
    20    11    25 1   
    21    12    13 1   
    22    12    14 1   
    23    12    26 1   
    24    13    27 1   
    25    13    28 1   
    26    13    29 1   
    27    14    15 1   
    28    14    16 1   
@<TRIPOS>SUBSTRUCTURE
     1 GSE         1 TEMP              0 ****  ****    0 ROOT
