@<TRIPOS>MOLECULE
GSF
   38    37     1     0     0
SMALL
bcc


@<TRIPOS>ATOM
      1 CB1          0.0000     0.0000     0.0000 c3         1 GSF      -0.007400
      2 CG1         -0.5090    -1.3080     0.6100 c3         1 GSF      -0.108400
      3 CD1         -2.0160    -1.3070     0.6110 c          1 GSF       0.604100
      4 OE1         -2.6230    -0.3550     0.1670 o          1 GSF      -0.662100
      5 C1           2.0330     1.2300    -0.7100 c          1 GSF       0.963600
      6 O11          2.0660     1.2640    -2.0530 o          1 GSF      -0.828300
      7 O12          2.4060     2.1870    -0.0730 o          1 GSF      -0.828300
      8 N1           2.0200     0.0000     1.3850 nz         1 GSF       0.079400
      9 CA1          1.5310     0.0000     0.0000 c3         1 GSF      -0.205500
     10 N2          -2.6900    -2.3640     1.1050 ns         1 GSF      -0.169900
     11 CA2         -4.1560    -2.3650     1.1050 c3         1 GSF      -0.019300
     12 CB2         -4.6650    -2.8580    -0.2500 c3         1 GSF       0.053900
     13 SG2         -4.0610    -1.7600    -1.5600 s4         1 GSF       0.365700
     14 O1S         -2.6630    -1.9490    -1.7310 o          1 GSF      -0.498200
     15 O2S         -4.6470    -2.3770    -2.8230 oh         1 GSF      -0.557800
     16 C2          -4.6580    -3.2770     2.1940 c          1 GSF       0.531100
     17 O2          -3.8690    -3.8700     2.8990 o          1 GSF      -0.702100
     18 N3          -5.9820    -3.4360     2.3830 ns         1 GSF      -0.117900
     19 CA3         -6.4700    -4.3230     3.4410 c3         1 GSF      -0.080000
     20 C3          -7.9780    -4.3230     3.4420 c          1 GSF       0.972600
     21 O31         -8.6490    -5.0700     4.3320 o          1 GSF      -0.886300
     22 O32         -8.5820    -3.6510     2.6400 o          1 GSF      -0.886300
     23 HB11        -0.3610     0.0890    -1.0170 hc         1 GSF       0.070700
     24 HB12        -0.3610     0.8370     0.5860 hc         1 GSF       0.070700
     25 HG11        -0.1480    -2.1440     0.0250 hc         1 GSF       0.015200
     26 HG12        -0.1480    -1.3960     1.6280 hc         1 GSF       0.015200
     27 HN11         1.8930    -0.9090     1.7840 hn         1 GSF       0.209133
     28 HN12         2.9930     0.2360     1.3950 hn         1 GSF       0.209133
     29 HA1          1.8920    -0.8840    -0.5110 hx         1 GSF       0.085700
     30 HN2         -2.1900    -3.1470     1.4770 hn         1 GSF       0.196500
     31 HA2         -4.5170    -1.3590     1.2820 h1         1 GSF       0.063700
     32 HB21        -5.7480    -2.8580    -0.2500 h1         1 GSF       0.067700
     33 HB22        -4.3040    -3.8640    -0.4270 h1         1 GSF       0.067700
     34 H2S         -5.0010    -1.6960    -3.3710 ho         1 GSF       0.454000
     35 HN3         -6.6330    -2.9220     1.8220 hn         1 GSF       0.197500
     36 HA31        -6.1090    -5.3290     3.2640 h1         1 GSF       0.027200
     37 HA32        -6.1090    -3.9740     4.4010 h1         1 GSF       0.027200
     38 H13          1.5100     0.6760     1.9190 hn         1 GSF       0.209133
@<TRIPOS>BOND
     1     1     2 1   
     2     1     9 1   
     3     1    23 1   
     4     1    24 1   
     5     2     3 1   
     6     2    25 1   
     7     2    26 1   
     8     3     4 2   
     9     3    10 1   
    10     5     6 1   
    11     5     7 1   
    12     5     9 1   
    13     8     9 1   
    14     8    27 1   
    15     8    28 1   
    16     8    38 1   
    17     9    29 1   
    18    10    11 1   
    19    10    30 1   
    20    11    12 1   
    21    11    16 1   
    22    11    31 1   
    23    12    13 1   
    24    12    32 1   
    25    12    33 1   
    26    13    14 2   
    27    13    15 1   
    28    15    34 1   
    29    16    17 2   
    30    16    18 1   
    31    18    19 1   
    32    18    35 1   
    33    19    20 1   
    34    19    36 1   
    35    19    37 1   
    36    20    21 1   
    37    20    22 1   
@<TRIPOS>SUBSTRUCTURE
     1 GSF         1 TEMP              0 ****  ****    0 ROOT
