@<TRIPOS>MOLECULE
GSG
   55    58     1     0     0
SMALL
bcc


@<TRIPOS>ATOM
      1 C1           0.0000     0.0000     0.0000 ca         1 GSG      -0.061400
      2 C2           1.3870     0.0000     0.0000 ca         1 GSG      -0.128300
      3 C3           2.0720     0.0000     1.2150 ca         1 GSG      -0.071000
      4 C4           1.3620    -0.0020     2.4160 ca         1 GSG      -0.124000
      5 C5          -0.0320    -0.0020     2.4020 ca         1 GSG      -0.072000
      6 C6          -0.7180    -0.0010     1.1880 ca         1 GSG      -0.148000
      7 N1          -0.7130     0.0000    -1.2210 ns         1 GSG      -0.034100
      8 C7          -2.0820    -0.0010    -1.4050 c          1 GSG       0.675100
      9 O1          -2.9540    -0.0020    -0.5450 o          1 GSG      -0.594000
     10 C8           2.1730     0.0020    -1.2700 c3         1 GSG       0.028900
     11 C9           2.4770    -1.4090    -1.7640 c3         1 GSG       0.005900
     12 O2          -2.3760     0.0000    -2.7870 os         1 GSG      -0.348200
     13 C10         -3.7030     0.0000    -3.0990 ca         1 GSG       0.089100
     14 C11         -4.3770     1.2240    -3.2560 ca         1 GSG      -0.074000
     15 C12         -5.7380     1.2670    -3.5770 ca         1 GSG      -0.118000
     16 C13         -6.4120     0.0680    -3.7310 ca         1 GSG       0.015600
     17 N2          -7.7940    -0.1520    -4.0080 nh         1 GSG      -0.298000
     18 C14         -8.7630     0.8940    -3.7950 c3         1 GSG       0.192100
     19 C15         -7.9330    -1.4970    -3.4720 c3         1 GSG       0.114700
     20 C16         -6.6680    -2.2620    -3.9290 c3         1 GSG       0.006300
     21 C17         -5.7120    -1.1640    -3.5870 ca         1 GSG      -0.118300
     22 C18         -4.3700    -1.2130    -3.2700 ca         1 GSG      -0.055000
     23 C19         -6.5240    -2.5480    -5.4420 c3         1 GSG       0.017900
     24 C20         -6.9110    -3.5490    -3.1650 c3         1 GSG      -0.009400
     25 C21         -8.4210    -3.8000    -3.4140 c3         1 GSG      -0.032200
     26 N3          -9.0620    -2.4330    -3.7480 n4         1 GSG       0.461400
     27 O3          -9.4700    -2.3610    -5.0460 o          1 GSG      -0.785000
     28 C22        -10.2420    -2.1830    -2.8560 c3         1 GSG      -0.000900
     29 H3           3.1550    -0.0000     1.2260 ha         1 GSG       0.107000
     30 H4           1.8950    -0.0030     3.3590 ha         1 GSG       0.105000
     31 H5          -0.5830    -0.0040     3.3350 ha         1 GSG       0.104000
     32 H6          -1.8010    -0.0010     1.1710 ha         1 GSG       0.157000
     33 HN1         -0.1570     0.0020    -2.0530 hn         1 GSG       0.178500
     34 H81          1.6070     0.5260    -2.0310 hc         1 GSG       0.015700
     35 H82          3.1070     0.5250    -1.1040 hc         1 GSG       0.015700
     36 H91          3.4240    -1.7380    -1.3540 hc         1 GSG       0.005367
     37 H92          2.5320    -1.4090    -2.8460 hc         1 GSG       0.005367
     38 H93          1.6900    -2.0810    -1.4420 hc         1 GSG       0.005367
     39 H11         -3.8310     2.1520    -3.1310 ha         1 GSG       0.109000
     40 H12         -6.2520     2.2130    -3.6970 ha         1 GSG       0.116000
     41 H141        -8.8480     1.0980    -2.7350 h1         1 GSG       0.011033
     42 H142        -8.4440     1.7920    -4.3110 h1         1 GSG       0.011033
     43 H143        -9.7250     0.5790    -4.1810 h1         1 GSG       0.011033
     44 H15         -7.8750    -1.4010    -2.3950 hx         1 GSG       0.023700
     45 H18         -3.9380    -2.1280    -2.8840 ha         1 GSG       0.117000
     46 H191        -7.1510    -3.3890    -5.7120 hc         1 GSG       0.023033
     47 H192        -6.8290    -1.6750    -6.0050 hc         1 GSG       0.023033
     48 H193        -5.4900    -2.7810    -5.6680 hc         1 GSG       0.023033
     49 H201        -6.3150    -4.3560    -3.5730 hc         1 GSG       0.031200
     50 H202        -6.7140    -3.4110    -2.1080 hc         1 GSG       0.031200
     51 H211        -8.8780    -4.2120    -2.5220 hx         1 GSG       0.056700
     52 H212        -8.5480    -4.4790    -4.2480 hx         1 GSG       0.056700
     53 H221       -10.8940    -3.0480    -2.8690 hx         1 GSG       0.040700
     54 H222       -10.7860    -1.3160    -3.2110 hx         1 GSG       0.040700
     55 H223        -9.8990    -2.0050    -1.8440 hx         1 GSG       0.040700
@<TRIPOS>BOND
     1     1     2 ar  
     2     1     6 ar  
     3     1     7 1   
     4     2     3 ar  
     5     2    10 1   
     6     3     4 ar  
     7     3    29 1   
     8     4     5 ar  
     9     4    30 1   
    10     5     6 ar  
    11     5    31 1   
    12     6    32 1   
    13     7     8 1   
    14     7    33 1   
    15     8     9 2   
    16     8    12 1   
    17    10    11 1   
    18    10    34 1   
    19    10    35 1   
    20    11    36 1   
    21    11    37 1   
    22    11    38 1   
    23    12    13 1   
    24    13    14 ar  
    25    13    22 ar  
    26    14    15 ar  
    27    14    39 1   
    28    15    16 ar  
    29    15    40 1   
    30    16    17 1   
    31    16    21 ar  
    32    17    18 1   
    33    17    19 1   
    34    18    41 1   
    35    18    42 1   
    36    18    43 1   
    37    19    20 1   
    38    19    26 1   
    39    19    44 1   
    40    20    21 1   
    41    20    23 1   
    42    20    24 1   
    43    21    22 ar  
    44    22    45 1   
    45    23    46 1   
    46    23    47 1   
    47    23    48 1   
    48    24    25 1   
    49    24    49 1   
    50    24    50 1   
    51    25    26 1   
    52    25    51 1   
    53    25    52 1   
    54    26    27 1   
    55    26    28 1   
    56    28    53 1   
    57    28    54 1   
    58    28    55 1   
@<TRIPOS>SUBSTRUCTURE
     1 GSG         1 TEMP              0 ****  ****    0 ROOT
