@<TRIPOS>MOLECULE
molecule
   36    35     1     0     0
SMALL
bcc


@<TRIPOS>ATOM
      1 N1           0.0000     0.0000     0.0000 nz         1 GSH      -0.805600
      2 CA1          1.4700     0.0000     0.0000 c3         1 GSH      -0.020500
      3 C1           1.9720     0.0000     1.4210 c          1 GSH       0.875600
      4 O11          3.2250    -0.3980     1.6900 o          1 GSH      -0.778800
      5 O12          1.2450     0.3580     2.3180 o          1 GSH      -0.778800
      6 CB1          1.9800     1.2490    -0.7210 c3         1 GSH      -0.074400
      7 CG1          1.5760     1.1870    -2.1960 c3         1 GSH      -0.175400
      8 CD1          2.0790     2.4180    -2.9060 c          1 GSH       0.657100
      9 OE1          2.6990     3.2610    -2.2930 o          1 GSH      -0.575100
     10 N2           1.8380     2.5810    -4.2220 ns         1 GSH      -0.562900
     11 CA2          2.3270     3.7780    -4.9120 c3         1 GSH       0.055700
     12 C2           1.4690     4.0450    -6.1210 c          1 GSH       0.634100
     13 O2           0.5400     3.3100    -6.3810 o          1 GSH      -0.652100
     14 CB2          3.7750     3.5550    -5.3530 c3         1 GSH       0.017700
     15 SG2          4.8080     3.2330    -3.8980 sh         1 GSH      -0.381900
     16 N3           1.7340     5.1030    -6.9150 ns         1 GSH      -0.534900
     17 CA3          0.8990     5.3630    -8.0900 c3         1 GSH      -0.008000
     18 C3           1.4020     6.5940    -8.8000 c          1 GSH       0.883600
     19 O31          0.7860     7.0250    -9.9120 o          1 GSH      -0.839300
     20 O32          2.3580     7.1910    -8.3690 o          1 GSH      -0.839300
     21 HN11        -0.3340    -0.8090    -0.4850 hn         1 GSH       0.438467
     22 HN12        -0.3340    -0.0160     0.9430 hn         1 GSH       0.438467
     23 HA1          1.8310    -0.8840    -0.5110 hx         1 GSH       0.098700
     24 HB12         3.0590     1.2960    -0.6440 hc         1 GSH       0.103200
     25 HB13         1.5470     2.1320    -0.2650 hc         1 GSH       0.103200
     26 HG12         0.4960     1.1420    -2.2730 hc         1 GSH       0.044200
     27 HG13         2.0080     0.3050    -2.6520 hc         1 GSH       0.044200
     28 HN2          1.3360     1.8800    -4.7300 hn         1 GSH       0.331500
     29 HA2          2.2810     4.6260    -4.2410 h1         1 GSH       0.104700
     30 HB22         3.8220     2.7060    -6.0250 h1         1 GSH       0.069700
     31 HB23         4.1370     4.4390    -5.8640 h1         1 GSH       0.069700
     32 HSG          6.0850     3.1960    -4.2610 hs         1 GSH       0.180800
     33 HN3          2.4820     5.7270    -6.6840 hn         1 GSH       0.338500
     34 HA31        -0.1260     5.5200    -7.7780 h1         1 GSH       0.048700
     35 HA32         0.9460     4.5140    -8.7610 h1         1 GSH       0.048700
     36 H13         -0.3340     0.8200    -0.4670 hn         1 GSH       0.438467
@<TRIPOS>BOND
     1     1     2 1
     2     1    21 1
     3     1    22 1
     4     2     3 1
     5     2     6 1
     6     2    23 1
     7     3     4 1
     8     3     5 1
     9     6     7 1
    10     6    24 1
    11     6    25 1
    12     7     8 1
    13     7    26 1
    14     7    27 1
    15     8     9 2
    16     8    10 1
    17    10    11 1
    18    10    28 1
    19    11    12 1
    20    11    14 1
    21    11    29 1
    22    12    13 2
    23    12    16 1
    24    14    15 1
    25    14    30 1
    26    14    31 1
    27    15    32 1
    28    16    17 1
    29    16    33 1
    30    17    18 1
    31    17    34 1
    32    17    35 1
    33    18    19 1
    34    18    20 1
    35    36     1 1
@<TRIPOS>SUBSTRUCTURE
     1 GSH         1 TEMP              0 ****  ****    0 ROOT
