@<TRIPOS>MOLECULE
molecule
   59    62     1     0     0
SMALL
bcc


@<TRIPOS>ATOM
      1 Cl1          0.0000     0.0000     0.0000 cl         1 GSI      -0.070400
      2 C1           1.7380     0.0000     0.0000 cc         1 GSI      -0.027700
      3 C2           2.5260     0.0000     1.2070 cd         1 GSI      -0.128000
      4 C3           3.9180     0.0280     0.8590 cd         1 GSI      -0.151000
      5 S2           2.6450     0.0380    -1.4400 ss         1 GSI       0.052200
      6 C4           4.1240     0.0550    -0.5620 cc         1 GSI      -0.093400
      7 C5           5.4660     0.1010    -1.1390 c3         1 GSI       0.026900
      8 C6           5.7360     0.3300    -2.4410 c3         1 GSI      -0.300600
      9 S1           7.4370     0.3140    -2.8050 s6         1 GSI       1.411900
     10 O2           7.5940    -0.4640    -3.9870 o          1 GSI      -0.636800
     11 O1           8.1200     0.0870    -1.5840 o          1 GSI      -0.636800
     12 N1           7.8600     1.7630    -3.3700 n7         1 GSI      -0.902100
     13 C12          7.7540     2.9590    -2.5700 c3         1 GSI       0.159500
     14 C13          9.0170     3.8060    -2.7320 c3         1 GSI      -0.101400
     15 C14          8.4480     5.2260    -2.6560 c3         1 GSI       0.093000
     16 C50          6.6270     3.8530    -3.0560 c          1 GSI       0.678500
     17 O3           5.5130     3.4860    -3.4090 o          1 GSI      -0.600500
     18 N2           7.0510     5.1210    -3.0480 n          1 GSI      -0.377000
     19 C15          6.2690     6.1990    -3.3560 ca         1 GSI       0.019600
     20 C21          6.1790     7.2750    -2.4350 ca         1 GSI      -0.114000
     21 C24          5.3640     8.3750    -2.7710 ca         1 GSI      -0.124000
     22 C27          4.6720     8.4190    -3.9950 ca         1 GSI       0.001800
     23 C26          4.7580     7.3400    -4.9080 ca         1 GSI      -0.146000
     24 C22          5.5570     6.2450    -4.5600 ca         1 GSI       0.144900
     25 F1           5.6670     5.2070    -5.4100 f          1 GSI      -0.117900
     26 N4           3.8650     9.5110    -4.3440 na         1 GSI      -0.093000
     27 C9           2.6810     9.7830    -3.7100 cc         1 GSI      -0.295600
     28 C7           2.1270    10.9310    -4.3260 cd         1 GSI       0.312200
     29 N3           3.0060    11.3020    -5.2950 nd         1 GSI      -0.655000
     30 C8           4.0550    10.4470    -5.3070 cc         1 GSI       0.383800
     31 C10          5.2250    10.5460    -6.2770 c3         1 GSI       0.157500
     32 N5           5.7000    11.9330    -6.4740 n3         1 GSI      -0.696600
     33 C11          6.2660    12.4870    -5.2320 c3         1 GSI       0.146100
     34 C16          6.7080    11.9530    -7.5440 c3         1 GSI       0.146100
     35 H2           2.1310    -0.0230     2.2150 ha         1 GSI       0.168000
     36 H3           4.7210     0.0330     1.5860 ha         1 GSI       0.158000
     37 H5C1         6.0050     0.8580    -0.5830 hc         1 GSI       0.053200
     38 H5C2         5.9270    -0.8510    -0.9010 hc         1 GSI       0.053200
     39 H6C1         5.3320     1.2980    -2.7130 h1         1 GSI       0.127700
     40 H6C2         5.2470    -0.4310    -3.0360 h1         1 GSI       0.127700
     41 H1           8.2070     1.8350    -4.3060 hn         1 GSI       0.474800
     42 H12          7.6060     2.7060    -1.5270 h1         1 GSI       0.098700
     43 H131         9.7100     3.6240    -1.9180 hc         1 GSI       0.076200
     44 H132         9.4820     3.6270    -3.6940 hc         1 GSI       0.076200
     45 H141         8.9790     5.8750    -3.3430 h1         1 GSI       0.057700
     46 H142         8.5230     5.6030    -1.6440 h1         1 GSI       0.057700
     47 H21          6.7110     7.2450    -1.4910 ha         1 GSI       0.153000
     48 H24          5.2840     9.2090    -2.0840 ha         1 GSI       0.154000
     49 H26          4.2220     7.3620    -5.8490 ha         1 GSI       0.172000
     50 H9           2.2460     9.2200    -2.8930 h4         1 GSI       0.180000
     51 H7           1.1940    11.4190    -4.0720 h4         1 GSI       0.051100
     52 H101         4.9180    10.1440    -7.2350 h1         1 GSI       0.043200
     53 H102         6.0440     9.9480    -5.8950 h1         1 GSI       0.043200
     54 H111         6.7570    13.4290    -5.4470 h1         1 GSI       0.034200
     55 H112         5.4720    12.6490    -4.5140 h1         1 GSI       0.034200
     56 H113         6.9870    11.7900    -4.8220 h1         1 GSI       0.034200
     57 H161         7.0330    12.9730    -7.7160 h1         1 GSI       0.034200
     58 H162         7.5580    11.3480    -7.2520 h1         1 GSI       0.034200
     59 H163         6.2770    11.5540    -8.4540 h1         1 GSI       0.034200
@<TRIPOS>BOND
     1     1     2 1
     2     2     3 2
     3     2     5 1
     4     3     4 1
     5     4     6 2
     6     5     6 1
     7     6     7 1
     8     7     8 1
     9     8     9 1
    10     9    10 2
    11     9    11 2
    12     9    12 1
    13    12    13 1
    14    13    14 1
    15    13    16 1
    16    14    15 1
    17    15    18 1
    18    16    17 2
    19    16    18 1
    20    18    19 1
    21    19    20 ar
    22    19    24 ar
    23    20    21 ar
    24    21    22 ar
    25    22    23 ar
    26    22    26 1
    27    23    24 ar
    28    24    25 1
    29    26    27 1
    30    26    30 1
    31    27    28 2
    32    28    29 1
    33    29    30 2
    34    30    31 1
    35    31    32 1
    36    32    33 1
    37    32    34 1
    38     3    35 1
    39     4    36 1
    40     7    37 1
    41     7    38 1
    42     8    39 1
    43     8    40 1
    44    12    41 1
    45    13    42 1
    46    14    43 1
    47    14    44 1
    48    15    45 1
    49    15    46 1
    50    20    47 1
    51    21    48 1
    52    23    49 1
    53    27    50 1
    54    28    51 1
    55    31    52 1
    56    31    53 1
    57    33    54 1
    58    33    55 1
    59    33    56 1
    60    34    57 1
    61    34    58 1
    62    34    59 1
@<TRIPOS>SUBSTRUCTURE
     1 GSI         1 TEMP              0 ****  ****    0 ROOT
