@<TRIPOS>MOLECULE
GSI
   59    62     1     0     0
SMALL
bcc


@<TRIPOS>ATOM
      1 Cl1          0.0000     0.0000     0.0000 cl         1 GSI       0.042600
      2 C1           1.7380     0.0000     0.0000 cc         1 GSI      -0.039700
      3 C2           2.5260     0.0000     1.2070 cd         1 GSI      -0.095000
      4 C3           3.9180     0.0280     0.8590 cd         1 GSI      -0.124000
      5 S2           2.6450     0.0380    -1.4400 ss         1 GSI      -0.129800
      6 C4           4.1240     0.0550    -0.5620 cc         1 GSI      -0.031400
      7 C5           5.4660     0.1010    -1.1390 c3         1 GSI       0.083900
      8 C6           5.7360     0.3300    -2.4410 c3         1 GSI      -0.089600
      9 S1           7.4370     0.3140    -2.8050 s6         1 GSI       1.018900
     10 O2           7.5940    -0.4640    -3.9870 o          1 GSI      -0.590300
     11 O1           8.1200     0.0870    -1.5840 o          1 GSI      -0.590300
     12 N1           7.8600     1.7630    -3.3700 n7         1 GSI      -0.566100
     13 C12          7.7540     2.9590    -2.5700 c3         1 GSI       0.114500
     14 C13          9.0170     3.8060    -2.7320 c3         1 GSI      -0.041400
     15 C14          8.4480     5.2260    -2.6560 c3         1 GSI       0.032000
     16 C50          6.6270     3.8530    -3.0560 c          1 GSI       0.587500
     17 O3           5.5130     3.4860    -3.4090 o          1 GSI      -0.641500
     18 N2           7.0510     5.1210    -3.0480 n          1 GSI       0.012000
     19 C15          6.2690     6.1990    -3.3560 ca         1 GSI      -0.094400
     20 C21          6.1790     7.2750    -2.4350 ca         1 GSI      -0.088000
     21 C24          5.3640     8.3750    -2.7710 ca         1 GSI      -0.071000
     22 C27          4.6720     8.4190    -3.9950 ca         1 GSI      -0.179200
     23 C26          4.7580     7.3400    -4.9080 ca         1 GSI      -0.092000
     24 C22          5.5570     6.2450    -4.5600 ca         1 GSI       0.124900
     25 F1           5.6670     5.2070    -5.4100 f          1 GSI      -0.110900
     26 N4           3.8650     9.5110    -4.3440 na         1 GSI       0.457000
     27 C9           2.6810     9.7830    -3.7100 cc         1 GSI      -0.484600
     28 C7           2.1270    10.9310    -4.3260 cd         1 GSI       0.337200
     29 N3           3.0060    11.3020    -5.2950 nd         1 GSI      -0.593000
     30 C8           4.0550    10.4470    -5.3070 cc         1 GSI       0.154800
     31 C10          5.2250    10.5460    -6.2770 c3         1 GSI       0.168500
     32 N5           5.7000    11.9330    -6.4740 n3         1 GSI      -0.513600
     33 C11          6.2660    12.4870    -5.2320 c3         1 GSI       0.179100
     34 C16          6.7080    11.9530    -7.5440 c3         1 GSI       0.179100
     35 H2           2.1310    -0.0230     2.2150 ha         1 GSI       0.135000
     36 H3           4.7210     0.0330     1.5860 ha         1 GSI       0.128000
     37 H5C1         6.0050     0.8580    -0.5830 hc         1 GSI       0.031200
     38 H5C2         5.9270    -0.8510    -0.9010 hc         1 GSI       0.031200
     39 H6C1         5.3320     1.2980    -2.7130 h1         1 GSI       0.103700
     40 H6C2         5.2470    -0.4310    -3.0360 h1         1 GSI       0.103700
     41 H1           8.2070     1.8350    -4.3060 hn         1 GSI       0.367800
     42 H12          7.6060     2.7060    -1.5270 h1         1 GSI       0.064700
     43 H131         9.7100     3.6240    -1.9180 hc         1 GSI       0.042200
     44 H132         9.4820     3.6270    -3.6940 hc         1 GSI       0.042200
     45 H141         8.9790     5.8750    -3.3430 h1         1 GSI       0.025700
     46 H142         8.5230     5.6030    -1.6440 h1         1 GSI       0.025700
     47 H21          6.7110     7.2450    -1.4910 ha         1 GSI       0.123000
     48 H24          5.2840     9.2090    -2.0840 ha         1 GSI       0.121000
     49 H26          4.2220     7.3620    -5.8490 ha         1 GSI       0.141000
     50 H9           2.2460     9.2200    -2.8930 h4         1 GSI       0.158000
     51 H7           1.1940    11.4190    -4.0720 h4         1 GSI       0.009100
     52 H101         4.9180    10.1440    -7.2350 h1         1 GSI       0.006200
     53 H102         6.0440     9.9480    -5.8950 h1         1 GSI       0.006200
     54 H111         6.7570    13.4290    -5.4470 h1         1 GSI       0.001367
     55 H112         5.4720    12.6490    -4.5140 h1         1 GSI       0.001367
     56 H113         6.9870    11.7900    -4.8220 h1         1 GSI       0.001367
     57 H161         7.0330    12.9730    -7.7160 h1         1 GSI       0.001367
     58 H162         7.5580    11.3480    -7.2520 h1         1 GSI       0.001367
     59 H163         6.2770    11.5540    -8.4540 h1         1 GSI       0.001367
@<TRIPOS>BOND
     1     1     2 1   
     2     2     3 2   
     3     2     5 1   
     4     3     4 1   
     5     3    35 1   
     6     4     6 2   
     7     4    36 1   
     8     5     6 1   
     9     6     7 1   
    10     7     8 1   
    11     7    37 1   
    12     7    38 1   
    13     8     9 1   
    14     8    39 1   
    15     8    40 1   
    16     9    10 2   
    17     9    11 2   
    18     9    12 1   
    19    12    13 1   
    20    12    41 1   
    21    13    14 1   
    22    13    16 1   
    23    13    42 1   
    24    14    15 1   
    25    14    43 1   
    26    14    44 1   
    27    15    18 1   
    28    15    45 1   
    29    15    46 1   
    30    16    17 2   
    31    16    18 1   
    32    18    19 1   
    33    19    20 ar  
    34    19    24 ar  
    35    20    21 ar  
    36    20    47 1   
    37    21    22 ar  
    38    21    48 1   
    39    22    23 ar  
    40    22    26 1   
    41    23    24 ar  
    42    23    49 1   
    43    24    25 1   
    44    26    27 1   
    45    26    30 1   
    46    27    28 2   
    47    27    50 1   
    48    28    29 1   
    49    28    51 1   
    50    29    30 2   
    51    30    31 1   
    52    31    32 1   
    53    31    52 1   
    54    31    53 1   
    55    32    33 1   
    56    32    34 1   
    57    33    54 1   
    58    33    55 1   
    59    33    56 1   
    60    34    57 1   
    61    34    58 1   
    62    34    59 1   
@<TRIPOS>SUBSTRUCTURE
     1 GSI         1 TEMP              0 ****  ****    0 ROOT
