@<TRIPOS>MOLECULE
GSJ
   67    69     1     0     0
SMALL
bcc


@<TRIPOS>ATOM
      1 C23          0.0000     0.0000     0.0000 c3         1 GSJ      -0.005300
      2 S2           1.7780     0.0000     0.0000 s6         1 GSJ       0.884900
      3 O5           2.2240     0.0000     1.3800 o          1 GSJ      -0.556300
      4 O6           2.2110    -1.0350    -0.9200 o          1 GSJ      -0.556300
      5 N4           2.0820     1.5500    -0.6910 n7         1 GSJ      -0.569100
      6 C22          1.5080     2.7310    -0.1030 c3         1 GSJ       0.203800
      7 C11          2.4080     3.9450    -0.2570 c3         1 GSJ       0.015000
      8 N3           2.6540     4.2700    -1.6570 n          1 GSJ      -0.168800
      9 C19          1.7270     5.2410    -2.2340 c3         1 GSJ       0.023700
     10 C20          1.7890     6.5290    -1.4260 c3         1 GSJ      -0.018100
     11 C21          0.3260     4.6440    -2.2350 c3         1 GSJ      -0.018100
     12 C18          3.7490     3.6950    -2.3120 c          1 GSJ       0.597100
     13 O4           4.5290     2.9150    -1.7540 o          1 GSJ      -0.627100
     14 C16          3.9330     4.0240    -3.7920 c3         1 GSJ      -0.040300
     15 C17          3.2430     2.9880    -4.6680 c3         1 GSJ      -0.007100
     16 N2           5.3540     4.0510    -4.0580 n          1 GSJ      -0.164800
     17 C15          6.0720     5.1610    -4.5050 c          1 GSJ       0.626500
     18 O3           5.6590     6.2960    -4.6940 o          1 GSJ      -0.646500
     19 C12          7.4820     4.6900    -4.7630 c3         1 GSJ       0.115500
     20 C13          7.5750     3.3890    -3.9710 c3         1 GSJ      -0.049400
     21 C14          6.1570     2.8520    -4.0010 c3         1 GSJ       0.026000
     22 N1           8.4300     5.6870    -4.2540 n7         1 GSJ      -0.531100
     23 S1           9.5470     6.4210    -5.3090 sy         1 GSJ       0.952200
     24 O2          10.2970     5.3920    -6.0030 o          1 GSJ      -0.560300
     25 O1          10.2420     7.4800    -4.6030 o          1 GSJ      -0.560300
     26 C6           8.4780     7.2010    -6.4820 ca         1 GSJ      -0.128500
     27 C7           8.0550     8.4950    -6.2510 ca         1 GSJ       0.002000
     28 C8           7.2120     9.1120    -7.1780 ca         1 GSJ      -0.103000
     29 C9           6.7950     8.4300    -8.3320 ca         1 GSJ       0.012000
     30 C10          5.9470     9.0350    -9.2730 ca         1 GSJ      -0.098000
     31 C4           7.2390     7.1040    -8.5510 ca         1 GSJ      -0.069000
     32 C5           8.0860     6.4990    -7.6090 ca         1 GSJ       0.020000
     33 C3           6.8210     6.4220    -9.7060 ca         1 GSJ      -0.060000
     34 C2           5.9790     7.0390   -10.6310 ca         1 GSJ      -0.109000
     35 C1           5.5420     8.3440   -10.4160 ca         1 GSJ      -0.023600
     36 Cl1          4.5030     9.1030   -11.5590 cl         1 GSJ      -0.014400
     37 H231        -0.3610     0.6860     0.7560 h1         1 GSJ       0.065700
     38 H232        -0.3610     0.3120    -0.9730 h1         1 GSJ       0.065700
     39 H233        -0.3610    -0.9980     0.2160 h1         1 GSJ       0.065700
     40 H4           2.6570     1.6290    -1.5070 hn         1 GSJ       0.357800
     41 H221         1.3380     2.5510     0.9510 h1         1 GSJ       0.013700
     42 H222         0.5580     2.9350    -0.5820 h1         1 GSJ       0.013700
     43 H111         1.9390     4.7950     0.2240 h1         1 GSJ       0.044200
     44 H112         3.3560     3.7440     0.2290 h1         1 GSJ       0.044200
     45 H19          2.0230     5.4490    -3.2550 h1         1 GSJ       0.042700
     46 H201         1.5380     7.3680    -2.0650 hc         1 GSJ       0.016033
     47 H202         1.0830     6.4760    -0.6070 hc         1 GSJ       0.016033
     48 H203         2.7890     6.6610    -1.0330 hc         1 GSJ       0.016033
     49 H211        -0.3030     5.2010    -2.9190 hc         1 GSJ       0.016033
     50 H212         0.3750     3.6090    -2.5510 hc         1 GSJ       0.016033
     51 H213        -0.0900     4.6980    -1.2360 hc         1 GSJ       0.016033
     52 H16          3.5120     5.0010    -3.9960 h1         1 GSJ       0.064700
     53 H171         2.1760     3.1710    -4.6720 hc         1 GSJ       0.017367
     54 H172         3.6250     3.0580    -5.6790 hc         1 GSJ       0.017367
     55 H173         3.4380     1.9970    -4.2760 hc         1 GSJ       0.017367
     56 H141         5.9980     2.2450    -4.8840 h1         1 GSJ       0.043700
     57 H142         5.9420     2.2930    -3.0990 h1         1 GSJ       0.043700
     58 H12          7.6360     4.5060    -5.8190 h1         1 GSJ       0.059700
     59 H131         7.8840     3.5870    -2.9520 hc         1 GSJ       0.038700
     60 H132         8.2530     2.6980    -4.4550 hc         1 GSJ       0.038700
     61 H1           8.4250     5.9320    -3.2840 hn         1 GSJ       0.349800
     62 H7           8.5020     9.0760    -5.4540 ha         1 GSJ       0.129000
     63 H5           8.4860     5.5100    -7.7970 ha         1 GSJ       0.122000
     64 H8           6.8760    10.1270    -7.0040 ha         1 GSJ       0.110000
     65 H10          5.6040    10.0500    -9.1120 ha         1 GSJ       0.118000
     66 H3           7.1560     5.4070    -9.8800 ha         1 GSJ       0.107000
     67 H2           5.6640     6.5030   -11.5180 ha         1 GSJ       0.117000
@<TRIPOS>BOND
     1     1     2 1   
     2     1    37 1   
     3     1    38 1   
     4     1    39 1   
     5     2     3 2   
     6     2     4 2   
     7     2     5 1   
     8     5     6 1   
     9     5    40 1   
    10     6     7 1   
    11     6    41 1   
    12     6    42 1   
    13     7     8 1   
    14     7    43 1   
    15     7    44 1   
    16     8     9 1   
    17     8    12 1   
    18     9    10 1   
    19     9    11 1   
    20     9    45 1   
    21    10    46 1   
    22    10    47 1   
    23    10    48 1   
    24    11    49 1   
    25    11    50 1   
    26    11    51 1   
    27    12    13 2   
    28    12    14 1   
    29    14    15 1   
    30    14    16 1   
    31    14    52 1   
    32    15    53 1   
    33    15    54 1   
    34    15    55 1   
    35    16    17 1   
    36    16    21 1   
    37    17    18 2   
    38    17    19 1   
    39    19    20 1   
    40    19    22 1   
    41    19    58 1   
    42    20    21 1   
    43    20    59 1   
    44    20    60 1   
    45    21    56 1   
    46    21    57 1   
    47    22    23 1   
    48    22    61 1   
    49    23    24 2   
    50    23    25 2   
    51    23    26 1   
    52    26    27 ar  
    53    26    32 ar  
    54    27    28 ar  
    55    27    62 1   
    56    28    29 ar  
    57    28    64 1   
    58    29    30 ar  
    59    29    31 ar  
    60    30    35 ar  
    61    30    65 1   
    62    31    32 ar  
    63    31    33 ar  
    64    32    63 1   
    65    33    34 ar  
    66    33    66 1   
    67    34    35 ar  
    68    34    67 1   
    69    35    36 1   
@<TRIPOS>SUBSTRUCTURE
     1 GSJ         1 TEMP              0 ****  ****    0 ROOT
