@<TRIPOS>MOLECULE
GSK
   55    58     1     0     0
SMALL
bcc


@<TRIPOS>ATOM
      1 Cl1          0.0000     0.0000     0.0000 cl         1 GSK      -0.036400
      2 C1           1.7360     0.0000     0.0000 ca         1 GSK      -0.011600
      3 C2           2.4230     0.0000     1.2140 ca         1 GSK      -0.118000
      4 C3           3.7830     0.0000     1.2490 ca         1 GSK      -0.046000
      5 C4           4.5100     0.0000     0.0470 ca         1 GSK      -0.066000
      6 C5           5.9160    -0.0050     0.0430 ca         1 GSK       0.058000
      7 C9           3.8130     0.0000    -1.1880 ca         1 GSK       0.019000
      8 C10          2.4080    -0.0000    -1.1850 ca         1 GSK      -0.105000
      9 C8           4.5400    -0.0000    -2.3900 ca         1 GSK      -0.113000
     10 C7           5.9010    -0.0010    -2.3550 ca         1 GSK      -0.002000
     11 C6           6.5870    -0.0000    -1.1410 ca         1 GSK      -0.140500
     12 S1           8.3490    -0.0000    -1.1400 sy         1 GSK       1.042200
     13 O2           8.7340    -0.5250     0.1230 o          1 GSK      -0.590300
     14 O1           8.7350    -0.5260    -2.4030 o          1 GSK      -0.590300
     15 N1           8.8440     1.5800    -1.1400 n7         1 GSK      -0.555100
     16 C12          8.5500     2.4400     0.0080 c3         1 GSK       0.113500
     17 C13          9.7070     3.4380     0.2470 c3         1 GSK      -0.039400
     18 C14          8.9440     4.7020     0.7000 c3         1 GSK       0.054000
     19 C15          7.3510     3.3190    -0.2720 c          1 GSK       0.620500
     20 O3           6.3160     2.9420    -0.7780 o          1 GSK      -0.645500
     21 N2           7.6030     4.5810     0.1150 n          1 GSK      -0.149800
     22 C16          6.6600     5.6930    -0.0230 c3         1 GSK      -0.015300
     23 C17          6.3190     5.8920    -1.5020 c3         1 GSK      -0.020100
     24 C18          5.4000     5.3810     0.7430 c          1 GSK       0.580100
     25 O4           5.3010     4.3330     1.3460 o          1 GSK      -0.625100
     26 N3           4.3830     6.2650     0.7590 n          1 GSK      -0.153800
     27 C19          3.1400     5.9900     1.4990 c3         1 GSK       0.005500
     28 C20          2.7850     7.2360     2.3180 c3         1 GSK       0.186400
     29 O5           2.6920     8.3660     1.4520 os         1 GSK      -0.385600
     30 C22          4.0060     8.6610     0.9790 c3         1 GSK       0.186400
     31 C23          4.4750     7.5490     0.0420 c3         1 GSK       0.005500
     32 H2           1.8650    -0.0010     2.1430 ha         1 GSK       0.113000
     33 H3           4.3030     0.0000     2.2000 ha         1 GSK       0.109000
     34 H5           6.4620    -0.0050     0.9790 ha         1 GSK       0.120000
     35 H10          1.8640     0.1010    -2.1160 ha         1 GSK       0.118000
     36 H8           4.0210    -0.0010    -3.3410 ha         1 GSK       0.108000
     37 H7           6.4590     0.0030    -3.2830 ha         1 GSK       0.118000
     38 H1           9.3730     1.9380    -1.9110 hn         1 GSK       0.347800
     39 H12          8.3790     1.8450     0.8980 h1         1 GSK       0.073700
     40 H131        10.3660     3.0840     1.0300 hc         1 GSK       0.033200
     41 H132        10.2500     3.6240    -0.6720 hc         1 GSK       0.033200
     42 H141         8.8790     4.7310     1.7810 h1         1 GSK       0.016700
     43 H142         9.4370     5.5910     0.3250 h1         1 GSK       0.016700
     44 H16          7.1070     6.5980     0.3690 h1         1 GSK       0.039700
     45 H171         6.3860     6.9440    -1.7490 hc         1 GSK       0.021367
     46 H172         7.0180     5.3320    -2.1120 hc         1 GSK       0.021367
     47 H173         5.3120     5.5390    -1.6910 hc         1 GSK       0.021367
     48 H191         2.3410     5.7730     0.8010 h1         1 GSK       0.040450
     49 H192         3.2910     5.1480     2.1640 h1         1 GSK       0.040450
     50 H201         1.8340     7.0820     2.8120 h1         1 GSK       0.015450
     51 H202         3.5570     7.4120     3.0570 h1         1 GSK       0.015450
     52 H221         3.9920     9.6010     0.4420 h1         1 GSK       0.015450
     53 H222         4.6840     8.7300     1.8220 h1         1 GSK       0.015450
     54 H231         5.5030     7.7290    -0.2500 h1         1 GSK       0.040450
     55 H232         3.8410     7.5210    -0.8360 h1         1 GSK       0.040450
@<TRIPOS>BOND
     1     1     2 1   
     2     2     3 ar  
     3     2     8 ar  
     4     3     4 ar  
     5     3    32 1   
     6     4     5 ar  
     7     4    33 1   
     8     5     6 ar  
     9     5     7 ar  
    10     6    11 ar  
    11     6    34 1   
    12     7     8 ar  
    13     7     9 ar  
    14     8    35 1   
    15     9    10 ar  
    16     9    36 1   
    17    10    11 ar  
    18    10    37 1   
    19    11    12 1   
    20    12    13 2   
    21    12    14 2   
    22    12    15 1   
    23    15    16 1   
    24    15    38 1   
    25    16    17 1   
    26    16    19 1   
    27    16    39 1   
    28    17    18 1   
    29    17    40 1   
    30    17    41 1   
    31    18    21 1   
    32    18    42 1   
    33    18    43 1   
    34    19    20 2   
    35    19    21 1   
    36    21    22 1   
    37    22    23 1   
    38    22    24 1   
    39    22    44 1   
    40    23    45 1   
    41    23    46 1   
    42    23    47 1   
    43    24    25 2   
    44    24    26 1   
    45    26    27 1   
    46    26    31 1   
    47    27    28 1   
    48    27    48 1   
    49    27    49 1   
    50    28    29 1   
    51    28    50 1   
    52    28    51 1   
    53    29    30 1   
    54    30    31 1   
    55    30    52 1   
    56    30    53 1   
    57    31    54 1   
    58    31    55 1   
@<TRIPOS>SUBSTRUCTURE
     1 GSK         1 TEMP              0 ****  ****    0 ROOT
