@<TRIPOS>MOLECULE
GSL
  120   120     1     0     0
SMALL
bcc


@<TRIPOS>ATOM
      1 C17          0.0000     0.0000     0.0000 c3         1 GSL       0.005900
      2 C16          1.5300     0.0000     0.0000 c3         1 GSL      -0.028400
      3 C15          2.0400     0.0000     1.4420 c3         1 GSL      -0.029400
      4 C14          3.5700    -0.0000     1.4420 c3         1 GSL      -0.029400
      5 C13          4.0800    -0.0000     2.8850 c3         1 GSL      -0.029400
      6 C12          5.6100    -0.0000     2.8850 c3         1 GSL      -0.029400
      7 C11          6.1200    -0.0000     4.3280 c3         1 GSL      -0.029400
      8 C10          7.6500    -0.0000     4.3280 c3         1 GSL      -0.029400
      9 C9           8.1600    -0.0010     5.7710 c3         1 GSL      -0.029400
     10 C8           9.6900    -0.0010     5.7710 c3         1 GSL      -0.029400
     11 C7          10.2000    -0.0010     7.2130 c3         1 GSL      -0.029400
     12 C6          11.7300    -0.0010     7.2130 c3         1 GSL      -0.029400
     13 C5          12.2400    -0.0020     8.6560 c3         1 GSL      -0.028400
     14 C4          13.7700    -0.0020     8.6560 c3         1 GSL      -0.029400
     15 C3          14.2800    -0.0020    10.0980 c3         1 GSL      -0.060400
     16 C2          15.8100    -0.0020    10.0980 c3         1 GSL       0.178100
     17 O           16.2860     1.2200     9.5290 oh         1 GSL      -0.583800
     18 C1          16.3200    -0.1270    11.5350 c3         1 GSL       0.002700
     19 C           17.8490    -0.0740    11.5410 c3         1 GSL       0.167400
     20 O1          18.3640    -1.0870    10.6730 os         1 GSL      -0.429600
     21 C29         19.7890    -0.9860    10.7210 c3         1 GSL       0.343900
     22 O3          20.2510    -1.4140    12.0010 os         1 GSL      -0.347600
     23 C28         19.6950    -2.7040    12.2510 c3         1 GSL       0.034100
     24 C34         20.0040    -3.1150    13.6670 c          1 GSL       0.982600
     25 O7          19.4930    -4.2530    14.1620 o          1 GSL      -0.883300
     26 O6          20.7110    -2.4210    14.3580 o          1 GSL      -0.883300
     27 C33         20.2960    -3.7260    11.2830 c3         1 GSL       0.163100
     28 O5          21.7160    -3.7570    11.4430 oh         1 GSL      -0.564800
     29 C32         19.9490    -3.3170     9.8470 c3         1 GSL       0.151100
     30 O4          20.6270    -4.1760     8.9270 oh         1 GSL      -0.586800
     31 C30         20.3970    -1.8690     9.6280 c3         1 GSL       0.147100
     32 O31         19.9530    -1.4190     8.3470 oh         1 GSL      -0.593800
     33 N           15.8740    -1.4030    12.1020 ns         1 GSL      -0.193900
     34 C18         15.7450    -1.5390    13.4370 c          1 GSL       0.584100
     35 O2          15.9990    -0.6060    14.1680 o          1 GSL      -0.648100
     36 C19         15.2870    -2.8510    14.0180 c3         1 GSL      -0.099400
     37 C20         15.2260    -2.7390    15.5440 c3         1 GSL      -0.014400
     38 C21         14.7600    -4.0710    16.1360 c3         1 GSL      -0.033400
     39 C22         14.7000    -3.9580    17.6600 c3         1 GSL      -0.027400
     40 C23         14.2340    -5.2900    18.2520 c3         1 GSL      -0.030400
     41 C24         14.1730    -5.1770    19.7760 c3         1 GSL      -0.029400
     42 C25         13.7070    -6.5090    20.3680 c3         1 GSL      -0.029400
     43 C26         13.6470    -6.3960    21.8930 c3         1 GSL      -0.029400
     44 C27         13.1810    -7.7280    22.4840 c3         1 GSL      -0.029400
     45 C38         13.1200    -7.6160    24.0090 c3         1 GSL      -0.029400
     46 C37         12.6550    -8.9470    24.6000 c3         1 GSL      -0.030400
     47 C36         12.5940    -8.8360    26.1250 c3         1 GSL      -0.029400
     48 C35         12.1280   -10.1680    26.7160 c3         1 GSL       0.005900
     49 H171        -0.3610     0.8840     0.5110 hc         1 GSL      -0.000300
     50 H172        -0.3610    -0.8850     0.5110 hc         1 GSL      -0.000300
     51 H173        -0.3610     0.0000    -1.0210 hc         1 GSL      -0.000300
     52 H161         1.8910    -0.8840    -0.5110 hc         1 GSL       0.011700
     53 H162         1.8910     0.8840    -0.5110 hc         1 GSL       0.011700
     54 H151         1.6790    -0.8840     1.9530 hc         1 GSL       0.014700
     55 H152         1.6790     0.8840     1.9530 hc         1 GSL       0.014700
     56 H141         3.9320     0.8850     0.9320 hc         1 GSL       0.014200
     57 H142         3.9320    -0.8840     0.9320 hc         1 GSL       0.014200
     58 H131         3.7190    -0.8850     3.3960 hc         1 GSL       0.014700
     59 H132         3.7190     0.8840     3.3960 hc         1 GSL       0.014700
     60 H121         5.9710    -0.8850     2.3750 hc         1 GSL       0.014700
     61 H122         5.9710     0.8840     2.3750 hc         1 GSL       0.014700
     62 H111         5.7590     0.8840     4.8390 hc         1 GSL       0.014700
     63 H112         5.7590    -0.8850     4.8390 hc         1 GSL       0.014700
     64 H101         8.0110    -0.8850     3.8170 hc         1 GSL       0.014200
     65 H102         8.0110     0.8840     3.8170 hc         1 GSL       0.014200
     66 H91          7.7990    -0.8850     6.2810 hc         1 GSL       0.014700
     67 H92          7.7990     0.8840     6.2810 hc         1 GSL       0.014700
     68 H81         10.0510     0.8840     5.2600 hc         1 GSL       0.014200
     69 H82         10.0510    -0.8850     5.2590 hc         1 GSL       0.014200
     70 H71          9.8390     0.8820     7.7240 hc         1 GSL       0.014700
     71 H72          9.8400    -0.8870     7.7230 hc         1 GSL       0.014700
     72 H61         12.0920    -0.8840     6.7020 hc         1 GSL       0.013700
     73 H62         12.0910     0.8850     6.7030 hc         1 GSL       0.013700
     74 H51         11.8790    -0.8870     9.1650 hc         1 GSL       0.014700
     75 H52         11.8790     0.8820     9.1670 hc         1 GSL       0.014700
     76 H41         14.1310    -0.8860     8.1450 hc         1 GSL       0.015700
     77 H42         14.1310     0.8830     8.1450 hc         1 GSL       0.015700
     78 H31A        13.9190    -0.8860    10.6090 hc         1 GSL       0.025700
     79 H32A        13.9190     0.8830    10.6090 hc         1 GSL       0.025700
     80 H2          16.1710    -0.8380     9.5120 h1         1 GSL       0.021700
     81 HO          16.6620     1.0470     8.6820 ho         1 GSL       0.392000
     82 H1          15.9280     0.6890    12.1300 h1         1 GSL       0.063700
     83 H1A         18.1780     0.8990    11.1950 h1         1 GSL       0.030700
     84 H2A         18.2120    -0.2420    12.5470 h1         1 GSL       0.030700
     85 H29         20.0870     0.0420    10.5580 h2         1 GSL       0.014700
     86 H28         18.6220    -2.6640    12.1090 h1         1 GSL       0.026700
     87 H33         19.8820    -4.7050    11.4900 h1         1 GSL       0.026700
     88 HO5         21.9940    -4.6420    11.6140 ho         1 GSL       0.383000
     89 H32         18.8790    -3.3910     9.6990 h1         1 GSL       0.014700
     90 HO4         19.9950    -4.7000     8.4630 ho         1 GSL       0.375000
     91 H30         21.4780    -1.8140     9.6820 h1         1 GSL       0.039700
     92 H31         20.6840    -1.0690     7.8660 ho         1 GSL       0.380000
     93 HN          15.6360    -2.1630    11.4960 hn         1 GSL       0.172500
     94 H191        15.9840    -3.6330    13.7410 hc         1 GSL       0.032200
     95 H192        14.3030    -3.0920    13.6350 hc         1 GSL       0.032200
     96 H201        16.2100    -2.4980    15.9270 hc         1 GSL       0.033700
     97 H202        14.5290    -1.9570    15.8210 hc         1 GSL       0.033700
     98 H211        13.7760    -4.3120    15.7520 hc         1 GSL       0.013200
     99 H212        15.4570    -4.8530    15.8590 hc         1 GSL       0.013200
    100 H221        15.6840    -3.7170    18.0430 hc         1 GSL       0.017700
    101 H222        14.0030    -3.1760    17.9360 hc         1 GSL       0.017700
    102 H231        14.9310    -6.0720    17.9750 hc         1 GSL       0.013200
    103 H232        13.2500    -5.5310    17.8680 hc         1 GSL       0.013200
    104 H241        15.1570    -4.9360    20.1590 hc         1 GSL       0.014700
    105 H242        13.4760    -4.3950    20.0530 hc         1 GSL       0.014700
    106 H251        12.7230    -6.7500    19.9850 hc         1 GSL       0.013200
    107 H252        14.4040    -7.2910    20.0910 hc         1 GSL       0.013200
    108 H261        12.9510    -5.6140    22.1700 hc         1 GSL       0.014200
    109 H262        14.6320    -6.1560    22.2760 hc         1 GSL       0.014200
    110 H271        13.8780    -8.5100    22.2070 hc         1 GSL       0.013700
    111 H272        12.1970    -7.9690    22.1000 hc         1 GSL       0.013700
    112 H381        12.4230    -6.8340    24.2860 hc         1 GSL       0.014200
    113 H382        14.1040    -7.3750    24.3930 hc         1 GSL       0.014200
    114 H371        13.3520    -9.7290    24.3230 hc         1 GSL       0.013700
    115 H372        11.6710    -9.1880    24.2160 hc         1 GSL       0.013700
    116 H361        11.8970    -8.0540    26.4020 hc         1 GSL       0.011700
    117 H362        13.5780    -8.5950    26.5090 hc         1 GSL       0.011700
    118 H351        12.0830   -10.0870    27.7960 hc         1 GSL      -0.001633
    119 H352        12.8250   -10.9490    26.4410 hc         1 GSL      -0.001633
    120 H353        11.1440   -10.4090    26.3310 hc         1 GSL      -0.001633
@<TRIPOS>BOND
     1     1     2 1   
     2     1    49 1   
     3     1    50 1   
     4     1    51 1   
     5     2     3 1   
     6     2    52 1   
     7     2    53 1   
     8     3     4 1   
     9     3    54 1   
    10     3    55 1   
    11     4     5 1   
    12     4    56 1   
    13     4    57 1   
    14     5     6 1   
    15     5    58 1   
    16     5    59 1   
    17     6     7 1   
    18     6    60 1   
    19     6    61 1   
    20     7     8 1   
    21     7    62 1   
    22     7    63 1   
    23     8     9 1   
    24     8    64 1   
    25     8    65 1   
    26     9    10 1   
    27     9    66 1   
    28     9    67 1   
    29    10    11 1   
    30    10    68 1   
    31    10    69 1   
    32    11    12 1   
    33    11    70 1   
    34    11    71 1   
    35    12    13 1   
    36    12    72 1   
    37    12    73 1   
    38    13    14 1   
    39    13    74 1   
    40    13    75 1   
    41    14    15 1   
    42    14    76 1   
    43    14    77 1   
    44    15    16 1   
    45    15    78 1   
    46    15    79 1   
    47    16    17 1   
    48    16    18 1   
    49    16    80 1   
    50    17    81 1   
    51    18    19 1   
    52    18    33 1   
    53    18    82 1   
    54    19    20 1   
    55    19    83 1   
    56    19    84 1   
    57    20    21 1   
    58    21    22 1   
    59    21    31 1   
    60    21    85 1   
    61    22    23 1   
    62    23    24 1   
    63    23    27 1   
    64    23    86 1   
    65    24    25 1   
    66    24    26 1   
    67    27    28 1   
    68    27    29 1   
    69    27    87 1   
    70    28    88 1   
    71    29    30 1   
    72    29    31 1   
    73    29    89 1   
    74    30    90 1   
    75    31    32 1   
    76    31    91 1   
    77    32    92 1   
    78    33    34 1   
    79    33    93 1   
    80    34    35 2   
    81    34    36 1   
    82    36    37 1   
    83    36    94 1   
    84    36    95 1   
    85    37    38 1   
    86    37    96 1   
    87    37    97 1   
    88    38    39 1   
    89    38    98 1   
    90    38    99 1   
    91    39    40 1   
    92    39   100 1   
    93    39   101 1   
    94    40    41 1   
    95    40   102 1   
    96    40   103 1   
    97    41    42 1   
    98    41   104 1   
    99    41   105 1   
   100    42    43 1   
   101    42   106 1   
   102    42   107 1   
   103    43    44 1   
   104    43   108 1   
   105    43   109 1   
   106    44    45 1   
   107    44   110 1   
   108    44   111 1   
   109    45    46 1   
   110    45   112 1   
   111    45   113 1   
   112    46    47 1   
   113    46   114 1   
   114    46   115 1   
   115    47    48 1   
   116    47   116 1   
   117    47   117 1   
   118    48   118 1   
   119    48   119 1   
   120    48   120 1   
@<TRIPOS>SUBSTRUCTURE
     1 GSL         1 TEMP              0 ****  ****    0 ROOT
