@<TRIPOS>MOLECULE
GSM
   39    38     1     0     0
SMALL
bcc


@<TRIPOS>ATOM
      1 O32          0.0000     0.0000     0.0000 o          1 GSM      -0.885800
      2 C3           1.3420     0.0000     0.0000 c          1 GSM       0.971600
      3 O31          1.9470     0.0000     1.0460 o          1 GSM      -0.885800
      4 CA3          2.0960     0.0020    -1.3050 c3         1 GSM      -0.080000
      5 N3           3.5360     0.0010    -1.0380 ns         1 GSM      -0.118900
      6 C2           4.4120     0.0030    -2.0620 c          1 GSM       0.531100
      7 O2           4.0080     0.0040    -3.2050 o          1 GSM      -0.704100
      8 CA2          5.8930     0.0030    -1.7860 c3         1 GSM      -0.038300
      9 CB2          6.2630     1.2500    -0.9830 c3         1 GSM       0.059700
     10 SG2          8.0460     1.2510    -0.6510 ss         1 GSM      -0.366200
     11 C4           8.1930     2.7970     0.2850 c3         1 GSM       0.086000
     12 N2           6.6270     0.0040    -3.0550 ns         1 GSM      -0.160900
     13 CD1          7.8790    -0.4890    -3.1100 c          1 GSM       0.561100
     14 OE1          8.4010    -0.9340    -2.1100 o          1 GSM      -0.613100
     15 CG1          8.6330    -0.4880    -4.4150 c3         1 GSM      -0.115400
     16 CB1         10.0200    -1.0980    -4.2030 c3         1 GSM      -0.008400
     17 CA1         10.7860    -1.0960    -5.5290 c3         1 GSM      -0.205500
     18 N1          10.1110    -1.9870    -6.4840 nz         1 GSM       0.080400
     19 C1          12.1930    -1.5830    -5.2960 c          1 GSM       0.963600
     20 O11         13.1180    -0.7460    -4.8000 o          1 GSM      -0.826300
     21 O12         12.4880    -2.7250    -5.5580 o          1 GSM      -0.826300
     22 HA31         1.8340    -0.8820    -1.8740 h1         1 GSM       0.026700
     23 HA32         1.8340     0.8870    -1.8720 h1         1 GSM       0.026700
     24 HN3          3.8700    -0.0220    -0.0940 hn         1 GSM       0.200500
     25 HA2          6.1550    -0.8820    -1.2190 h1         1 GSM       0.076700
     26 HB21         5.7220     1.2490    -0.0450 h1         1 GSM       0.047700
     27 HB22         6.0010     2.1350    -1.5500 h1         1 GSM       0.047700
     28 H41          7.5920     2.7330     1.1840 h1         1 GSM       0.028033
     29 H42          9.2290     2.9590     0.5550 h1         1 GSM       0.028033
     30 H43          7.8450     3.6230    -0.3240 h1         1 GSM       0.028033
     31 HN2          6.1950     0.3670    -3.8820 hn         1 GSM       0.192500
     32 HG11         8.7360     0.5290    -4.7710 hc         1 GSM       0.013200
     33 HG12         8.0890    -1.0740    -5.1460 hc         1 GSM       0.013200
     34 HB11        10.5640    -0.5130    -3.4710 hc         1 GSM       0.070700
     35 HB12         9.9160    -2.1160    -3.8470 hc         1 GSM       0.070700
     36 HA1         10.8130    -0.0900    -5.9290 hx         1 GSM       0.082700
     37 HN11        10.7210    -2.1710    -7.2560 hn         1 GSM       0.209467
     38 HN12         9.8780    -2.8470    -6.0300 hn         1 GSM       0.209467
     39 H13          9.2760    -1.5470    -6.8170 hn         1 GSM       0.209467
@<TRIPOS>BOND
     1     1     2 1   
     2     2     3 1   
     3     2     4 1   
     4     4     5 1   
     5     4    22 1   
     6     4    23 1   
     7     5     6 1   
     8     5    24 1   
     9     6     7 2   
    10     6     8 1   
    11     8     9 1   
    12     8    12 1   
    13     8    25 1   
    14     9    10 1   
    15     9    26 1   
    16     9    27 1   
    17    10    11 1   
    18    11    28 1   
    19    11    29 1   
    20    11    30 1   
    21    12    13 1   
    22    12    31 1   
    23    13    14 2   
    24    13    15 1   
    25    15    16 1   
    26    15    32 1   
    27    15    33 1   
    28    16    17 1   
    29    16    34 1   
    30    16    35 1   
    31    17    18 1   
    32    17    19 1   
    33    17    36 1   
    34    18    37 1   
    35    18    38 1   
    36    18    39 1   
    37    19    20 1   
    38    19    21 1   
@<TRIPOS>SUBSTRUCTURE
     1 GSM         1 TEMP              0 ****  ****    0 ROOT
