@<TRIPOS>MOLECULE
molecule
   37    36     1     0     0
SMALL
bcc


@<TRIPOS>ATOM
      1 OXT          0.0000     0.0000     0.0000 o          1 GSN      -0.778800
      2 C            1.2200     0.0000     0.0000 c          1 GSN       0.906600
      3 O            1.8290    -0.0010    -1.0560 o          1 GSN      -0.778800
      4 CA           1.9740     0.0000     1.3050 c3         1 GSN      -0.048500
      5 N            1.0380     0.2410     2.4110 nz         1 GSN      -0.787600
      6 CB           2.6560    -1.3550     1.5000 c3         1 GSN      -0.072400
      7 CAG          3.5210    -1.3140     2.7610 c3         1 GSN      -0.172400
      8 CAH          4.1940    -2.6500     2.9530 c          1 GSN       0.658100
      9 OAI          3.9990    -3.5460     2.1600 o          1 GSN      -0.611100
     10 NAJ          5.0100    -2.8470     4.0070 ns         1 GSN      -0.558900
     11 CAK          5.6640    -4.1450     4.1930 c3         1 GSN       0.035700
     12 CAL          6.9540    -4.1900     3.3720 c3         1 GSN      -0.038300
     13 SAM          6.5620    -3.9580     1.6200 ss         1 GSN       0.084400
     14 NAN          6.2690    -2.4250     1.6080 n2         1 GSN      -0.048200
     15 OAV          5.9580    -1.8730     0.5680 o          1 GSN      -0.220300
     16 CAO          5.9900    -4.3380     5.6520 c          1 GSN       0.630100
     17 OAP          5.7050    -3.4770     6.4560 o          1 GSN      -0.651100
     18 NAQ          6.5990    -5.4690     6.0630 ns         1 GSN      -0.526900
     19 CAR          6.9160    -5.6560     7.4800 c3         1 GSN      -0.033000
     20 CAS          7.5880    -6.9910     7.6730 c          1 GSN       0.912600
     21 OAU          7.9360    -7.3440     8.7870 o          1 GSN      -0.833800
     22 OAT          7.7840    -7.7190     6.7140 o          1 GSN      -0.833800
     23 HA           2.7230     0.7820     1.2890 hx         1 GSN       0.096700
     24 HN1          0.4810    -0.5770     2.5610 hn         1 GSN       0.435800
     25 HN2          1.5520     0.4510     3.2430 hn         1 GSN       0.435800
     26 HB1          1.9030    -2.1270     1.6030 hc         1 GSN       0.102200
     27 HB2          3.2800    -1.5720     0.6410 hc         1 GSN       0.102200
     28 HAG1         2.8980    -1.0970     3.6200 hc         1 GSN       0.048700
     29 HAG2         4.2740    -0.5420     2.6570 hc         1 GSN       0.048700
     30 HAJ          5.1400    -2.1190     4.6820 hn         1 GSN       0.338500
     31 HAK          4.9990    -4.9340     3.8640 h1         1 GSN       0.101700
     32 HAL1         7.6190    -3.4000     3.7000 h1         1 GSN       0.098200
     33 HAL2         7.4370    -5.1490     3.5100 h1         1 GSN       0.098200
     34 HAQ          6.8060    -6.1930     5.4040 hn         1 GSN       0.338500
     35 HAR1         6.0020    -5.6240     8.0610 h1         1 GSN       0.043700
     36 HAR2         7.5810    -4.8660     7.8090 h1         1 GSN       0.043700
     37 HN3          0.4360     1.0060     2.1780 hn         1 GSN       0.435800
@<TRIPOS>BOND
     1     1     2 1
     2     2     3 1
     3     2     4 1
     4     4     5 1
     5     4     6 1
     6     4    23 1
     7     5    24 1
     8     5    25 1
     9     6     7 1
    10     6    26 1
    11     6    27 1
    12     7     8 1
    13     7    28 1
    14     7    29 1
    15     8     9 2
    16     8    10 1
    17    10    11 1
    18    10    30 1
    19    11    12 1
    20    11    16 1
    21    11    31 1
    22    12    13 1
    23    12    32 1
    24    12    33 1
    25    13    14 1
    26    14    15 2
    27    16    17 2
    28    16    18 1
    29    18    19 1
    30    18    34 1
    31    19    20 1
    32    19    35 1
    33    19    36 1
    34    20    21 1
    35    20    22 1
    36    37     5 1
@<TRIPOS>SUBSTRUCTURE
     1 GSN         1 TEMP              0 ****  ****    0 ROOT
