@<TRIPOS>MOLECULE
GSO
   55    55     1     0     0
SMALL
bcc


@<TRIPOS>ATOM
      1 C           4.9610   -1.7930    1.3100 c2        1 GSO      0.315000
      2 OT1         6.0900   -1.2590    1.3680 o         1 GSO     -0.515000
      3 OT2         4.5230   -2.7260    2.0370 o         1 GSO     -0.515000
      4 N           3.0680   -2.2550   -0.2400 n4        1 GSO     -0.054000
      5 CA          3.9330   -1.1600    0.3010 c3        1 GSO     -0.190000
      6 CB          3.1220   -0.0820    1.0270 c3        1 GSO     -0.162000
      7 CB2         6.3580   -1.1000    6.1170 c3        1 GSO     -0.324000
      8 SG2         5.8880   -2.7970    5.9780 ss        1 GSO      0.096000
      9 CG          3.9330    0.6050    2.1130 c3        1 GSO     -0.175000
     10 CD          3.8380   -0.1490    3.4180 c2        1 GSO      0.279000
     11 OE          2.8030   -0.3340    4.0490 o         1 GSO     -0.214000
     12 N2          5.0980   -0.7110    3.9970 n4        1 GSO     -0.103000
     13 CA2         5.3690   -0.1980    5.3790 c3        1 GSO     -0.079000
     14 C2          5.9000    1.2550    5.3230 c2        1 GSO      0.290000
     15 O2          5.9740    1.8570    4.2330 o         1 GSO     -0.365000
     16 N3          6.1760    1.8630    6.5280 n         1 GSO     -0.317000
     17 CA3         6.8900    3.1110    6.5760 c3        1 GSO     -0.089000
     18 C3          8.3440    2.9630    6.9930 c2        1 GSO      0.269000
     19 O31         9.1460    4.0590    6.9660 oh        1 GSO     -0.259000
     20 O32         8.8920    1.9300    7.3760 o         1 GSO     -0.297000
     21 OF2         7.6300   -1.8890    3.5320 oh        1 GSO     -0.415000
     22 CD2         7.2760   -3.5570    5.1810 c3        1 GSO     -0.279000
     23 CG2        11.2580   -4.6870    2.8070 c2        1 GSO     -0.595000
     24 CL1        10.0900   -3.7220    3.4750 cl        1 GSO      0.947000
     25 CL2        10.7450   -5.9650    1.7780 cl        1 GSO      0.815000
     26 CM1         8.4690   -4.1080    3.0810 c2        1 GSO     -0.757000
     27 CM2         9.0230   -6.0280    1.5910 c2        1 GSO     -0.636000
     28 CZ          8.1880   -5.1620    2.2190 c2        1 GSO      0.124000
     29 C22         7.3940   -3.2970    3.6820 c3        1 GSO      0.138000
     30 HN1         2.1710   -1.8990   -0.5690 hn        1 GSO      0.255000
     31 HN2         3.5570   -2.7270   -1.0030 hn        1 GSO      0.255000
     32 HA          4.5020   -0.7010   -0.5570 hx        1 GSO      0.160000
     33 HBC1        2.8050    0.6990    0.2830 hc        1 GSO      0.115500
     34 HBC2        2.1890   -0.5100    1.4860 hc        1 GSO      0.115500
     35 HB21        6.3440   -0.8350    7.2040 h1        1 GSO      0.155500
     36 HB22        7.3970   -0.9470    5.7260 h1        1 GSO      0.155500
     37 HGC1        3.4990    1.6270    2.3130 hc        1 GSO      0.165000
     38 HGC2        5.0000    0.7540    1.7840 hc        1 GSO      0.165000
     39 H2          5.9120   -0.5070    3.3770 hn        1 GSO      0.310000
     40 HA2         4.3780   -0.1960    5.9330 hx        1 GSO      0.171000
     41 H3          8.6520    4.8330    6.6570 ho        1 GSO      0.234000
     42 HA31        6.3790    3.7760    7.3340 h1        1 GSO      0.145000
     43 HA32        6.8470    3.6150    5.5660 h1        1 GSO      0.145000
     44 HF2         7.8090   -1.7420    2.5920 ho        1 GSO      0.246000
     45 HD21        7.1120   -4.6550    5.3380 h1        1 GSO      0.134000
     46 HD22        8.2180   -3.2550    5.6980 h1        1 GSO      0.134000
     47 HL1        10.0280   -2.6730    4.2810 ha        1 GSO     -0.194000
     48 HL2        11.1980   -6.9630    1.0360 ha        1 GSO     -0.182000
     49 HM2         8.6850   -6.8270    0.9340 h4        1 GSO      0.165000
     50 HZ          7.1080   -5.3230    2.0120 ha        1 GSO      0.134000
     51 H22         6.4070   -3.5300    3.1770 h1        1 GSO      0.112000
     52 HN3         2.9200   -2.9350    0.5280 hn        1 GSO      0.255000
     53 H221        5.0290   -1.7650    4.0450 hn        1 GSO      0.310000
     54 H32         6.2780    1.2850    7.3360 hn        1 GSO      0.246000
     55 HG2        12.3260   -4.5370    2.9930 h5        1 GSO      0.160000
@<TRIPOS>BOND
     1    1    2 1   
     2    1    3 1   
     3    1    5 1   
     4    4    5 1   
     5    4   30 1   
     6    4   31 1   
     7    4   52 1   
     8    5    6 1   
     9    5   32 1   
    10    6    9 1   
    11    6   33 1   
    12    6   34 1   
    13    7    8 1   
    14    7   13 1   
    15    7   35 1   
    16    7   36 1   
    17    8   22 1   
    18    9   10 1   
    19    9   37 1   
    20    9   38 1   
    21   10   11 1   
    22   10   12 1   
    23   12   13 1   
    24   12   39 1   
    25   12   53 1   
    26   13   14 1   
    27   13   40 1   
    28   14   15 1   
    29   14   16 1   
    30   16   17 1   
    31   16   54 1   
    32   17   18 1   
    33   17   42 1   
    34   17   43 1   
    35   18   19 1   
    36   18   20 1   
    37   19   41 1   
    38   21   29 1   
    39   21   44 1   
    40   22   29 1   
    41   22   45 1   
    42   22   46 1   
    43   23   24 1   
    44   23   25 1   
    45   23   55 1   
    46   24   26 1   
    47   24   47 1   
    48   25   27 1   
    49   25   48 1   
    50   26   28 1   
    51   26   29 1   
    52   27   28 1   
    53   27   49 1   
    54   28   50 1   
    55   29   51 1   
@<TRIPOS>SUBSTRUCTURE
     1 GSO         1 TEMP              0 ****  ****    0 ROOT
