@<TRIPOS>MOLECULE
molecule
   47    49     1     0     0
SMALL
bcc


@<TRIPOS>ATOM
      1 PG           0.0000     0.0000     0.0000 p5         1 GSP       1.214200
      2 O3B          1.6100     0.0000     0.0000 os         1 GSP      -0.564800
      3 S1G         -0.6210     0.0000     1.7560 s          1 GSP      -0.596000
      4 O2G         -0.5370     1.3140    -0.7590 oh         1 GSP      -0.675900
      5 O3G         -0.5360    -1.3150    -0.7580 oh         1 GSP      -0.675900
      6 PB           2.0760    -1.3340     0.7710 p5         1 GSP       1.144800
      7 O1B          1.5050    -2.6260    -0.0000 o          1 GSP      -0.644500
      8 O2B          1.5510    -1.3130     2.1540 o          1 GSP      -0.644500
      9 PA           4.0780    -2.7500     1.5900 p5         1 GSP       1.253800
     10 O1A          3.4730    -4.0180     0.8050 o          1 GSP      -0.744500
     11 O2A          3.5210    -2.7070     2.9610 o          1 GSP      -0.744500
     12 O3A          3.6840    -1.4000     0.8090 os         1 GSP      -0.617800
     13 O5'          5.6800    -2.8790     1.6660 os         1 GSP      -0.535200
     14 C5'          5.9640    -4.0910     2.3660 c3         1 GSP       0.167400
     15 C4'          7.4790    -4.2770     2.4730 c3         1 GSP       0.127100
     16 O4'          8.0670    -3.1870     3.2180 os         1 GSP      -0.371600
     17 C3'          7.8130    -5.5410     3.2940 c3         1 GSP       0.095100
     18 O3'          8.1010    -6.6400     2.4270 oh         1 GSP      -0.578800
     19 C2'          9.0700    -5.1430     4.1030 c3         1 GSP       0.078100
     20 O2'         10.1720    -5.9870     3.7620 oh         1 GSP      -0.584800
     21 C1'          9.3420    -3.6850     3.6760 c3         1 GSP       0.229800
     22 N9           9.8150    -2.8990     4.8170 na         1 GSP      -0.158900
     23 C8           9.0360    -2.2230     5.7110 cc         1 GSP       0.514400
     24 N7           9.7870    -1.6340     6.5950 nd         1 GSP      -0.633000
     25 C5          11.0880    -1.8960     6.3240 cd         1 GSP       0.274800
     26 C6          12.3140    -1.5310     6.9290 c          1 GSP       0.636000
     27 O6          12.3340    -0.8260     7.9230 o          1 GSP      -0.576500
     28 N1          13.4610    -1.9880     6.3820 ns         1 GSP      -0.475400
     29 C2          13.4270    -2.7720     5.2660 cd         1 GSP       0.343800
     30 N2          14.6090    -3.2170     4.7300 nz         1 GSP      -0.699600
     31 N3          12.2960    -3.1190     4.6950 nc         1 GSP      -0.548100
     32 C4          11.1200    -2.7080     5.1850 cc         1 GSP       0.029800
     33 HOG2        -1.1790     1.7470    -0.2220 ho         1 GSP       0.448500
     34 HOG3        -1.3900    -1.1430    -1.1180 ho         1 GSP       0.448500
     35 H5'1         5.5350    -4.9280     1.8270 h1         1 GSP       0.071700
     36 H5'2         5.5350    -4.0430     3.3590 h1         1 GSP       0.071700
     37 H4'          7.9270    -4.3410     1.4890 h1         1 GSP       0.081700
     38 H3'          6.9950    -5.7830     3.9630 h1         1 GSP       0.070700
     39 HO3'         7.5620    -7.3770     2.6640 ho         1 GSP       0.408000
     40 H2'          8.8640    -5.1920     5.1660 h1         1 GSP       0.049700
     41 HO2'        10.3040    -6.6240     4.4440 ho         1 GSP       0.399000
     42 H1'         10.0650    -3.6600     2.8700 h2         1 GSP       0.096700
     43 H8           7.9530    -2.1830     5.6880 h5         1 GSP       0.125100
     44 HN1         14.3400    -1.7510     6.7970 hn         1 GSP       0.326500
     45 HN21        14.4180    -3.7990     3.9390 hn         1 GSP       0.454800
     46 HN22        15.1110    -3.7420     5.4180 hn         1 GSP       0.454800
     47 H23         15.1610    -2.4330     4.4410 hn         1 GSP       0.454800
@<TRIPOS>BOND
     1     1     2 1
     2     1     3 2
     3     1     4 1
     4     1     5 1
     5     2     6 1
     6     4    33 1
     7     5    34 1
     8     6     7 1
     9     6     8 1
    10     6    12 1
    11     9    10 1
    12     9    11 1
    13     9    12 1
    14     9    13 1
    15    13    14 1
    16    14    15 1
    17    14    35 1
    18    14    36 1
    19    15    16 1
    20    15    17 1
    21    15    37 1
    22    16    21 1
    23    17    18 1
    24    17    19 1
    25    17    38 1
    26    18    39 1
    27    19    20 1
    28    19    21 1
    29    19    40 1
    30    20    41 1
    31    21    22 1
    32    21    42 1
    33    22    23 1
    34    22    32 1
    35    23    24 2
    36    23    43 1
    37    24    25 1
    38    25    26 1
    39    25    32 2
    40    26    27 2
    41    26    28 1
    42    28    29 1
    43    28    44 1
    44    29    30 1
    45    29    31 2
    46    30    45 1
    47    30    46 1
    48    31    32 1
    49    47    30 1
@<TRIPOS>SUBSTRUCTURE
     1 GSP         1 TEMP              0 ****  ****    0 ROOT
