@<TRIPOS>MOLECULE
molecule
   53    56     1     0     0
SMALL
bcc


@<TRIPOS>ATOM
      1 Cl           0.0000     0.0000     0.0000 cl         1 GSQ      -0.102400
      2 C13          1.7230     0.0000     0.0000 ca         1 GSQ      -0.011600
      3 C14          2.4130     0.0000     1.2110 ca         1 GSQ      -0.085000
      4 C11          3.8110     0.0000     1.2430 ca         1 GSQ      -0.142000
      5 C6           4.4870     0.0010     0.0180 ca         1 GSQ      -0.004200
      6 N1           5.8360     0.0010    -0.2530 na         1 GSQ      -0.123400
      7 C5           3.8220     0.0010    -1.2100 ca         1 GSQ      -0.116800
      8 C10          2.4120     0.0010    -1.2170 ca         1 GSQ      -0.055000
      9 C2           4.8180     0.0020    -2.2250 cc         1 GSQ      -0.050200
     10 C1           6.0460     0.0020    -1.6060 cd         1 GSQ      -0.248200
     11 S4           7.6890     0.0040    -2.2590 sy         1 GSQ       1.324800
     12 O8           7.5960     0.1250    -3.7010 o          1 GSQ      -0.591800
     13 O9           8.4470     0.9740    -1.4930 o          1 GSQ      -0.591800
     14 N7           8.2240    -1.5630    -1.8600 n7         1 GSQ      -0.883100
     15 C12          7.5100    -2.7420    -2.3790 c3         1 GSQ       0.172500
     16 C15          7.0540    -3.5380    -1.1800 c          1 GSQ       0.693500
     17 O19          6.1150    -3.2370    -0.4590 o          1 GSQ      -0.604500
     18 C16          8.4560    -3.6860    -3.1130 c3         1 GSQ      -0.113400
     19 C20          8.9920    -4.6010    -2.0250 c3         1 GSQ       0.098000
     20 N18          7.9290    -4.6150    -1.0460 n          1 GSQ      -0.501800
     21 C21          7.9130    -5.5750     0.0360 c3         1 GSQ       0.051700
     22 C23          7.7910    -6.9970    -0.4580 c3         1 GSQ      -0.097100
     23 C22          9.2290    -5.3650     0.7420 c          1 GSQ       0.654100
     24 O25         10.1970    -6.0670     0.4390 o          1 GSQ      -0.593100
     25 N24          9.2630    -4.3650     1.7110 n          1 GSQ      -0.499800
     26 C26         10.5010    -4.0930     2.4400 c3         1 GSQ       0.060500
     27 C28         10.7490    -2.5940     2.5230 c3         1 GSQ       0.119900
     28 O30          9.6160    -1.9350     3.0940 os         1 GSQ      -0.406600
     29 C29          8.4520    -2.1210     2.2830 c3         1 GSQ       0.119900
     30 C27          8.1040    -3.6010     2.1860 c3         1 GSQ       0.060500
     31 H14          1.8580    -0.0010     2.1410 ha         1 GSQ       0.146000
     32 H10          1.8750     0.1650    -2.1440 ha         1 GSQ       0.148000
     33 H11          4.3510     0.0000     2.1820 ha         1 GSQ       0.141000
     34 H1           6.5590     0.0020     0.4390 hn         1 GSQ       0.304700
     35 H2           4.6410     0.0020    -3.2940 ha         1 GSQ       0.167000
     36 H7           9.0480    -1.6820    -1.3040 hn         1 GSQ       0.453800
     37 H12          6.6710    -2.4610    -3.0040 h1         1 GSQ       0.104700
     38 H161         7.9150    -4.2590    -3.8560 hc         1 GSQ       0.073200
     39 H162         9.2650    -3.1290    -3.5700 hc         1 GSQ       0.073200
     40 H201         9.1620    -5.5970    -2.4160 h1         1 GSQ       0.060200
     41 H202         9.8980    -4.1910    -1.5960 h1         1 GSQ       0.060200
     42 H21          7.0970    -5.3510     0.7120 h1         1 GSQ       0.087700
     43 H231         8.6890    -7.2690    -1.0000 hc         1 GSQ       0.055367
     44 H232         6.9340    -7.0780    -1.1160 hc         1 GSQ       0.055367
     45 H233         7.6630    -7.6630     0.3860 hc         1 GSQ       0.055367
     46 H261        10.4200    -4.4970     3.4420 h1         1 GSQ       0.066700
     47 H262        11.3290    -4.5640     1.9240 h1         1 GSQ       0.066700
     48 H271         7.8130    -3.9640     3.1640 h1         1 GSQ       0.066700
     49 H272         7.2830    -3.7290     1.4910 h1         1 GSQ       0.066700
     50 H281        11.6190    -2.4100     3.1430 h1         1 GSQ       0.052450
     51 H282        10.9240    -2.2050     1.5270 h1         1 GSQ       0.052450
     52 H291         7.6200    -1.5870     2.7260 h1         1 GSQ       0.052450
     53 H292         8.6450    -1.7340     1.2900 h1         1 GSQ       0.052450
@<TRIPOS>BOND
     1     1     2 1
     2     2     3 ar
     3     2     8 ar
     4     3     4 ar
     5     3    31 1
     6     4     5 ar
     7     4    33 1
     8     5     6 1
     9     5     7 ar
    10     6    10 1
    11     6    34 1
    12     7     8 ar
    13     7     9 1
    14     8    32 1
    15     9    10 2
    16     9    35 1
    17    10    11 1
    18    11    12 2
    19    11    13 2
    20    11    14 1
    21    14    15 1
    22    14    36 1
    23    15    16 1
    24    15    18 1
    25    15    37 1
    26    16    17 2
    27    16    20 1
    28    18    19 1
    29    18    38 1
    30    18    39 1
    31    19    20 1
    32    19    40 1
    33    19    41 1
    34    20    21 1
    35    21    22 1
    36    21    23 1
    37    21    42 1
    38    22    43 1
    39    22    44 1
    40    22    45 1
    41    23    24 2
    42    23    25 1
    43    25    26 1
    44    25    30 1
    45    26    27 1
    46    26    46 1
    47    26    47 1
    48    27    28 1
    49    27    50 1
    50    27    51 1
    51    28    29 1
    52    29    30 1
    53    29    52 1
    54    29    53 1
    55    30    48 1
    56    30    49 1
@<TRIPOS>SUBSTRUCTURE
     1 GSQ         1 TEMP              0 ****  ****    0 ROOT
