@<TRIPOS>MOLECULE
molecule
   36    35     1     0     0
SMALL
bcc


@<TRIPOS>ATOM
      1 PA           0.0000     0.0000     0.0000 p5         1 GST       1.169900
      2 O1A          1.6100     0.0000     0.0000 o          1 GST      -0.877833
      3 O2A         -0.4920     0.0000     1.3960 o          1 GST      -0.877833
      4 O3A         -0.5360     1.3140    -0.7590 o          1 GST      -0.877833
      5 O1B         -0.5370    -1.3140    -0.7580 os         1 GST      -0.615800
      6 PB          -0.4390    -2.5300     0.2930 p5         1 GST       1.032800
      7 O2B          0.9690    -2.7060     0.7160 o          1 GST      -0.705500
      8 O3B         -1.3490    -2.2020     1.5800 o          1 GST      -0.705500
      9 S1          -1.1290    -4.3130    -0.6230 ss         1 GST      -0.601500
     10 C1          -0.9110    -5.4780     0.7500 c3         1 GST       0.150900
     11 C2          -1.9960    -5.2570     1.7730 c2         1 GST      -0.061200
     12 C3          -2.8950    -6.1860     1.9870 c2         1 GST      -0.256400
     13 C10         -3.8880    -6.0300     3.1090 c3         1 GST      -0.026900
     14 C4          -2.9350    -7.4110     1.1100 c3         1 GST       0.013800
     15 C5          -2.1330    -8.5360     1.7670 c3         1 GST      -0.073200
     16 C6          -2.1740    -9.7610     0.8900 c2         1 GST      -0.523200
     17 C7          -1.0580   -10.3220     0.4970 c2         1 GST      -0.033400
     18 C9           0.2630    -9.8260     1.0270 c3         1 GST      -0.078400
     19 C8          -1.0930   -11.4630    -0.4870 c3         1 GST      -0.078400
     20 H11         -0.9700    -6.4930     0.3760 h1         1 GST       0.050200
     21 H12          0.0570    -5.3180     1.2090 h1         1 GST       0.050200
     22 H2          -1.9680    -4.3770     2.4050 ha         1 GST       0.194000
     23 H101        -4.5840    -6.8610     3.0940 hc         1 GST       0.018033
     24 H102        -3.3640    -6.0160     4.0570 hc         1 GST       0.018033
     25 H103        -4.4320    -5.1020     2.9840 hc         1 GST       0.018033
     26 H41         -3.9630    -7.7290     0.9800 hc         1 GST       0.056700
     27 H42         -2.5050    -7.1780     0.1430 hc         1 GST       0.056700
     28 H51         -2.5640    -8.7690     2.7340 hc         1 GST       0.023200
     29 H52         -1.1060    -8.2180     1.8970 hc         1 GST       0.023200
     30 H6          -2.0520    -9.8330     1.9640 ha         1 GST       0.302000
     31 H91          1.0450   -10.5250     0.7570 hc         1 GST       0.035867
     32 H92          0.2100    -9.7410     2.1060 hc         1 GST       0.035867
     33 H93          0.4820    -8.8550     0.5990 hc         1 GST       0.035867
     34 H81         -2.1210   -11.6840    -0.7470 hc         1 GST       0.035867
     35 H82         -0.6370   -12.3390    -0.0410 hc         1 GST       0.035867
     36 H83         -0.5460   -11.1870    -1.3800 hc         1 GST       0.035867
@<TRIPOS>BOND
     1     1     2 1
     2     1     3 1
     3     1     4 1
     4     1     5 1
     5     5     6 1
     6     6     7 1
     7     6     8 1
     8     6     9 1
     9     9    10 1
    10    10    11 1
    11    10    20 1
    12    10    21 1
    13    11    12 2
    14    11    22 1
    15    12    13 1
    16    12    14 1
    17    13    23 1
    18    13    24 1
    19    13    25 1
    20    14    15 1
    21    14    26 1
    22    14    27 1
    23    15    16 1
    24    15    28 1
    25    15    29 1
    26    16    17 2
    27    16    30 1
    28    17    18 1
    29    17    19 1
    30    18    31 1
    31    18    32 1
    32    18    33 1
    33    19    34 1
    34    19    35 1
    35    19    36 1
@<TRIPOS>SUBSTRUCTURE
     1 GST         1 TEMP              0 ****  ****    0 ROOT
