@<TRIPOS>MOLECULE
molecule
   57    60     1     0     0
SMALL
bcc


@<TRIPOS>ATOM
      1 C35          0.0000     0.0000     0.0000 c3         1 GSV      -0.255300
      2 S32          1.7730     0.0000     0.0000 sy         1 GSV       1.190300
      3 O37          2.1720     0.0000     1.3680 o          1 GSV      -0.617300
      4 O36          2.2060     1.0690    -0.8360 o          1 GSV      -0.617300
      5 C29          2.3960    -1.4440    -0.8750 ca         1 GSV      -0.248500
      6 C31          3.4810    -1.2720    -1.7690 ca         1 GSV      -0.024000
      7 C34          4.0020    -2.3680    -2.4970 ca         1 GSV      -0.144000
      8 C33          3.4450    -3.6540    -2.3390 ca         1 GSV      -0.080000
      9 C30          2.3630    -3.8230    -1.4520 ca         1 GSV      -0.136000
     10 C28          1.8340    -2.7260    -0.7170 cp         1 GSV       0.033000
     11 C27          0.6840    -3.0090     0.1980 cp         1 GSV      -0.076000
     12 C26          0.8980    -3.2310     1.5720 ca         1 GSV      -0.118000
     13 C22         -0.2260    -3.4890     2.3750 ca         1 GSV       0.137900
     14 F           -0.0640    -3.7220     3.6890 f          1 GSV      -0.115900
     15 C24         -0.6350    -3.0300    -0.3430 ca         1 GSV      -0.125000
     16 C21         -1.7590    -3.2850     0.4630 ca         1 GSV      -0.123000
     17 C15         -1.5450    -3.5200     1.8450 ca         1 GSV       0.021600
     18 N2          -2.6750    -3.7710     2.6620 n          1 GSV      -0.400000
     19 C50         -2.7340    -4.7880     3.5670 c          1 GSV       0.689500
     20 O3          -1.8980    -5.6510     3.7680 o          1 GSV      -0.591500
     21 C14         -3.8820    -2.9550     2.6340 c3         1 GSV       0.107000
     22 C13         -4.4630    -3.2090     4.0250 c3         1 GSV      -0.106400
     23 C12         -4.0300    -4.6570     4.3220 c3         1 GSV       0.158500
     24 N1          -3.8150    -4.8910     5.7400 n7         1 GSV      -0.897100
     25 S1          -4.3420    -6.2110     6.5130 s6         1 GSV       1.385900
     26 O2          -3.7060    -6.0470     7.7890 o          1 GSV      -0.629800
     27 O1          -5.7590    -6.3020     6.3980 o          1 GSV      -0.629800
     28 C6          -3.7360    -7.6070     5.6620 c3         1 GSV      -0.298600
     29 C5          -4.7100    -8.4430     4.9490 c3         1 GSV       0.031900
     30 C4          -4.3620    -9.6450     4.1550 cc         1 GSV      -0.097400
     31 S2          -2.8200   -10.3660     4.3020 ss         1 GSV       0.052200
     32 C3          -5.2540   -10.2910     3.2830 cd         1 GSV      -0.138000
     33 C2          -4.6180   -11.4240     2.7050 cd         1 GSV      -0.128000
     34 C1          -3.2900   -11.5430     3.1850 cc         1 GSV      -0.030700
     35 Cl          -2.1710   -12.7740     2.7190 cl         1 GSV      -0.070400
     36 H351        -0.3610    -0.5320     0.8720 h1         1 GSV       0.103700
     37 H352        -0.3610     1.0210     0.0250 h1         1 GSV       0.103700
     38 H353        -0.3610    -0.4890    -0.8970 h1         1 GSV       0.103700
     39 H31          3.9160    -0.2890    -1.8980 ha         1 GSV       0.164000
     40 H34          4.8340    -2.2190    -3.1760 ha         1 GSV       0.143000
     41 H33          3.8390    -4.4980    -2.8930 ha         1 GSV       0.143000
     42 H30          1.9270    -4.8060    -1.3250 ha         1 GSV       0.142000
     43 H26          1.8890    -3.4760     1.9330 ha         1 GSV       0.175000
     44 H24         -0.7750    -2.8470    -1.4020 ha         1 GSV       0.144000
     45 H21         -2.7560    -3.3010     0.0410 ha         1 GSV       0.151000
     46 H141        -3.6360    -1.9080     2.5050 h1         1 GSV       0.060200
     47 H142        -4.5620    -3.2990     1.8640 h1         1 GSV       0.060200
     48 H12         -4.7620    -5.3520     3.9280 h1         1 GSV       0.094700
     49 H131        -4.0330    -2.5260     4.7490 hc         1 GSV       0.074200
     50 H132        -5.5430    -3.1290     4.0080 hc         1 GSV       0.074200
     51 H1          -3.3160    -4.2010     6.2650 hn         1 GSV       0.472800
     52 H6C1        -3.0050    -7.2630     4.9410 h1         1 GSV       0.121200
     53 H6C2        -3.2250    -8.2360     6.3810 h1         1 GSV       0.121200
     54 H5C1        -5.4260    -8.7700     5.6930 hc         1 GSV       0.056200
     55 H5C2        -5.2380    -7.7790     4.2750 hc         1 GSV       0.056200
     56 H3          -6.2710    -9.9750     3.0840 ha         1 GSV       0.162000
     57 H2          -5.0810   -12.0960     1.9920 ha         1 GSV       0.164000
@<TRIPOS>BOND
     1     1     2 1
     2     2     3 2
     3     2     4 2
     4     2     5 1
     5     5     6 ar
     6     5    10 ar
     7     6     7 ar
     8     7     8 ar
     9     8     9 ar
    10     9    10 ar
    11    10    11 1
    12    11    12 ar
    13    11    15 ar
    14    12    13 ar
    15    13    14 1
    16    13    17 ar
    17    15    16 ar
    18    16    17 ar
    19    17    18 1
    20    18    19 1
    21    18    21 1
    22    19    20 2
    23    19    23 1
    24    21    22 1
    25    22    23 1
    26    23    24 1
    27    24    25 1
    28    25    26 2
    29    25    27 2
    30    25    28 1
    31    28    29 1
    32    29    30 1
    33    30    31 1
    34    30    32 2
    35    31    34 1
    36    32    33 1
    37    33    34 2
    38    34    35 1
    39     1    36 1
    40     1    37 1
    41     1    38 1
    42     6    39 1
    43     7    40 1
    44     8    41 1
    45     9    42 1
    46    12    43 1
    47    15    44 1
    48    16    45 1
    49    21    46 1
    50    21    47 1
    51    23    48 1
    52    22    49 1
    53    22    50 1
    54    24    51 1
    55    28    52 1
    56    28    53 1
    57    29    54 1
    58    29    55 1
    59    32    56 1
    60    33    57 1
@<TRIPOS>SUBSTRUCTURE
     1 GSV         1 TEMP              0 ****  ****    0 ROOT
