@<TRIPOS>MOLECULE
GSV
   57    60     1     0     0
SMALL
bcc


@<TRIPOS>ATOM
      1 C35          0.0000     0.0000     0.0000 c3         1 GSV      -0.007300
      2 S32          1.7730     0.0000     0.0000 sy         1 GSV       0.867300
      3 O37          2.1720     0.0000     1.3680 o          1 GSV      -0.590800
      4 O36          2.2060     1.0690    -0.8360 o          1 GSV      -0.590800
      5 C29          2.3960    -1.4440    -0.8750 ca         1 GSV      -0.102500
      6 C31          3.4810    -1.2720    -1.7690 ca         1 GSV       0.015000
      7 C34          4.0020    -2.3680    -2.4970 ca         1 GSV      -0.125000
      8 C33          3.4450    -3.6540    -2.3390 ca         1 GSV      -0.050000
      9 C30          2.3630    -3.8230    -1.4520 ca         1 GSV      -0.119000
     10 C28          1.8340    -2.7260    -0.7170 cp         1 GSV       0.037000
     11 C27          0.6840    -3.0090     0.1980 cp         1 GSV      -0.060000
     12 C26          0.8980    -3.2310     1.5720 ca         1 GSV      -0.076000
     13 C22         -0.2260    -3.4890     2.3750 ca         1 GSV       0.123900
     14 F           -0.0640    -3.7220     3.6890 f          1 GSV      -0.110900
     15 C24         -0.6350    -3.0300    -0.3430 ca         1 GSV      -0.100000
     16 C21         -1.7590    -3.2850     0.4630 ca         1 GSV      -0.096000
     17 C15         -1.5450    -3.5200     1.8450 ca         1 GSV      -0.101400
     18 N2          -2.6750    -3.7710     2.6620 n          1 GSV      -0.028000
     19 C50         -2.7340    -4.7880     3.5670 c          1 GSV       0.605500
     20 O3          -1.8980    -5.6510     3.7680 o          1 GSV      -0.631500
     21 C14         -3.8820    -2.9550     2.6340 c3         1 GSV       0.052000
     22 C13         -4.4630    -3.2090     4.0250 c3         1 GSV      -0.048400
     23 C12         -4.0300    -4.6570     4.3220 c3         1 GSV       0.109500
     24 N1          -3.8150    -4.8910     5.7400 n7         1 GSV      -0.559100
     25 S1          -4.3420    -6.2110     6.5130 s6         1 GSV       0.996900
     26 O2          -3.7060    -6.0470     7.7890 o          1 GSV      -0.586300
     27 O1          -5.7590    -6.3020     6.3980 o          1 GSV      -0.586300
     28 C6          -3.7360    -7.6070     5.6620 c3         1 GSV      -0.084600
     29 C5          -4.7100    -8.4430     4.9490 c3         1 GSV       0.100900
     30 C4          -4.3620    -9.6450     4.1550 cc         1 GSV      -0.038400
     31 S2          -2.8200   -10.3660     4.3020 ss         1 GSV      -0.127800
     32 C3          -5.2540   -10.2910     3.2830 cd         1 GSV      -0.108000
     33 C2          -4.6180   -11.4240     2.7050 cd         1 GSV      -0.096000
     34 C1          -3.2900   -11.5430     3.1850 cc         1 GSV      -0.041700
     35 Cl          -2.1710   -12.7740     2.7190 cl         1 GSV       0.040600
     36 H351        -0.3610    -0.5320     0.8720 h1         1 GSV       0.068700
     37 H352        -0.3610     1.0210     0.0250 h1         1 GSV       0.068700
     38 H353        -0.3610    -0.4890    -0.8970 h1         1 GSV       0.068700
     39 H31          3.9160    -0.2890    -1.8980 ha         1 GSV       0.134000
     40 H34          4.8340    -2.2190    -3.1760 ha         1 GSV       0.112000
     41 H33          3.8390    -4.4980    -2.8930 ha         1 GSV       0.108000
     42 H30          1.9270    -4.8060    -1.3250 ha         1 GSV       0.113000
     43 H26          1.8890    -3.4760     1.9330 ha         1 GSV       0.142000
     44 H24         -0.7750    -2.8470    -1.4020 ha         1 GSV       0.113000
     45 H21         -2.7560    -3.3010     0.0410 ha         1 GSV       0.119000
     46 H141        -3.6360    -1.9080     2.5050 h1         1 GSV       0.026200
     47 H142        -4.5620    -3.2990     1.8640 h1         1 GSV       0.026200
     48 H12         -4.7620    -5.3520     3.9280 h1         1 GSV       0.059700
     49 H131        -4.0330    -2.5260     4.7490 hc         1 GSV       0.040200
     50 H132        -5.5430    -3.1290     4.0080 hc         1 GSV       0.040200
     51 H1          -3.3160    -4.2010     6.2650 hn         1 GSV       0.364800
     52 H6C1        -3.0050    -7.2630     4.9410 h1         1 GSV       0.097200
     53 H6C2        -3.2250    -8.2360     6.3810 h1         1 GSV       0.097200
     54 H5C1        -5.4260    -8.7700     5.6930 hc         1 GSV       0.028200
     55 H5C2        -5.2380    -7.7790     4.2750 hc         1 GSV       0.028200
     56 H3          -6.2710    -9.9750     3.0840 ha         1 GSV       0.132000
     57 H2          -5.0810   -12.0960     1.9920 ha         1 GSV       0.132000
@<TRIPOS>BOND
     1     1     2 1   
     2     1    36 1   
     3     1    37 1   
     4     1    38 1   
     5     2     3 2   
     6     2     4 2   
     7     2     5 1   
     8     5     6 ar  
     9     5    10 ar  
    10     6     7 ar  
    11     6    39 1   
    12     7     8 ar  
    13     7    40 1   
    14     8     9 ar  
    15     8    41 1   
    16     9    10 ar  
    17     9    42 1   
    18    10    11 1   
    19    11    12 ar  
    20    11    15 ar  
    21    12    13 ar  
    22    12    43 1   
    23    13    14 1   
    24    13    17 ar  
    25    15    16 ar  
    26    15    44 1   
    27    16    17 ar  
    28    16    45 1   
    29    17    18 1   
    30    18    19 1   
    31    18    21 1   
    32    19    20 2   
    33    19    23 1   
    34    21    22 1   
    35    21    46 1   
    36    21    47 1   
    37    22    23 1   
    38    22    49 1   
    39    22    50 1   
    40    23    24 1   
    41    23    48 1   
    42    24    25 1   
    43    24    51 1   
    44    25    26 2   
    45    25    27 2   
    46    25    28 1   
    47    28    29 1   
    48    28    52 1   
    49    28    53 1   
    50    29    30 1   
    51    29    54 1   
    52    29    55 1   
    53    30    31 1   
    54    30    32 2   
    55    31    34 1   
    56    32    33 1   
    57    32    56 1   
    58    33    34 2   
    59    33    57 1   
    60    34    35 1   
@<TRIPOS>SUBSTRUCTURE
     1 GSV         1 TEMP              0 ****  ****    0 ROOT
