@<TRIPOS>MOLECULE
GSW
   36    35     1     0     0
SMALL
bcc


@<TRIPOS>ATOM
      1 O12          0.0000     0.0000     0.0000 o          1 GSW      -0.817800
      2 C1           1.2090     0.0000     0.0000 c          1 GSW       0.962600
      3 O11          1.8800     0.0050    -1.1620 o          1 GSW      -0.817800
      4 CA1          1.9610     0.0000     1.3060 c3         1 GSW      -0.200500
      5 N1           1.0790    -0.4730     2.3810 nz         1 GSW       0.039400
      6 CB1          2.4340     1.4210     1.6210 c3         1 GSW      -0.006400
      7 CG1          3.3040     1.4010     2.8800 c3         1 GSW      -0.115400
      8 CD1          3.7680     2.8010     3.1920 c          1 GSW       0.560100
      9 OE1          3.4370     3.7220     2.4770 o          1 GSW      -0.605100
     10 N2           4.5530     3.0260     4.2650 ns         1 GSW      -0.163900
     11 CA2          5.0050     4.3870     4.5670 c3         1 GSW      -0.036300
     12 CB2          3.9320     5.1120     5.3810 c3         1 GSW       0.087700
     13 SG2          2.3920     5.1840     4.4250 sh         1 GSW      -0.388900
     14 C2           6.2840     4.3250     5.3610 c          1 GSW       0.531100
     15 O2           6.7700     3.2510     5.6470 o          1 GSW      -0.698100
     16 N3           6.8880     5.4650     5.7550 ns         1 GSW      -0.119900
     17 CA3          8.1310     5.4050     6.5270 c3         1 GSW      -0.080000
     18 C3           8.5960     6.8040     6.8390 c          1 GSW       0.970600
     19 O31          9.7240     6.9950     7.5430 o          1 GSW      -0.885800
     20 O32          7.9560     7.7530     6.4540 o          1 GSW      -0.885800
     21 HA1          2.8190    -0.6570     1.2280 hx         1 GSW       0.082700
     22 H1N1         0.9730     0.2480     3.0670 hn         1 GSW       0.216133
     23 H1N2         1.4790    -1.2840     2.8080 hn         1 GSW       0.216133
     24 HB11         1.5740     2.0590     1.7860 hc         1 GSW       0.069700
     25 HB12         3.0120     1.8020     0.7890 hc         1 GSW       0.069700
     26 HG11         2.7250     1.0190     3.7130 hc         1 GSW       0.013200
     27 HG12         4.1630     0.7630     2.7150 hc         1 GSW       0.013200
     28 H2           4.8150     2.2670     4.8620 hn         1 GSW       0.191500
     29 HA2          5.1800     4.9230     3.6420 h1         1 GSW       0.080700
     30 HB21         3.7570     4.5760     6.3060 h1         1 GSW       0.043200
     31 HB22         4.2660     6.1180     5.6040 h1         1 GSW       0.043200
     32 H3           6.5030     6.3510     5.4930 hn         1 GSW       0.199500
     33 HA31         8.8910     4.8920     5.9500 h1         1 GSW       0.027200
     34 HA32         7.9570     4.8680     7.4520 h1         1 GSW       0.027200
     35 HS1          1.5110     5.9460     5.0620 hs         1 GSW       0.157800
     36 H13          0.1850    -0.7120     1.9980 hn         1 GSW       0.216133
@<TRIPOS>BOND
     1     1     2 1   
     2     2     3 1   
     3     2     4 1   
     4     4     5 1   
     5     4     6 1   
     6     4    21 1   
     7     5    22 1   
     8     5    23 1   
     9     5    36 1   
    10     6     7 1   
    11     6    24 1   
    12     6    25 1   
    13     7     8 1   
    14     7    26 1   
    15     7    27 1   
    16     8     9 2   
    17     8    10 1   
    18    10    11 1   
    19    10    28 1   
    20    11    12 1   
    21    11    14 1   
    22    11    29 1   
    23    12    13 1   
    24    12    30 1   
    25    12    31 1   
    26    13    35 1   
    27    14    15 2   
    28    14    16 1   
    29    16    17 1   
    30    16    32 1   
    31    17    18 1   
    32    17    33 1   
    33    17    34 1   
    34    18    19 1   
    35    18    20 1   
@<TRIPOS>SUBSTRUCTURE
     1 GSW         1 TEMP              0 ****  ****    0 ROOT
