@<TRIPOS>MOLECULE
molecule
   53    56     1     0     0
SMALL
bcc


@<TRIPOS>ATOM
      1 Cl1          0.0000     0.0000     0.0000 cl         1 GSX      -0.048400
      2 C1           1.7140     0.0000     0.0000 cc         1 GSX       0.011300
      3 C2           2.5580     0.0000     1.0890 cd         1 GSX      -0.139000
      4 C3           3.9300     0.0010     0.7020 cd         1 GSX      -0.128000
      5 C4           4.0810    -0.0010    -0.6670 cc         1 GSX      -0.023100
      6 C9           5.2980    -0.0010    -1.3970 cc         1 GSX       0.045900
      7 C8           5.5240    -0.5510    -2.6400 cd         1 GSX      -0.175000
      8 C7           6.8700    -0.3660    -3.0690 cd         1 GSX       0.005000
      9 C6           7.6120     0.3140    -2.1380 cc         1 GSX      -0.308600
     10 S1           9.3000     0.8350    -2.0920 sy         1 GSX       1.338200
     11 O2           9.9020     0.5160    -3.3730 o          1 GSX      -0.599800
     12 O1           9.3080     2.2010    -1.6030 o          1 GSX      -0.599800
     13 N1           9.9480    -0.1890    -0.8960 n7         1 GSX      -0.881100
     14 C12          9.9090    -1.6500    -1.0740 c3         1 GSX       0.173500
     15 C13         11.2980    -2.2640    -0.9380 c3         1 GSX      -0.108400
     16 C14         11.4420    -2.5400     0.5490 c3         1 GSX       0.103000
     17 C15          9.1430    -2.2130     0.0980 c          1 GSX       0.712500
     18 O3           7.9290    -2.1560     0.2300 o          1 GSX      -0.586500
     19 N2          10.0790    -2.7400     0.9850 n          1 GSX      -0.499800
     20 C16          9.7780    -3.2890     2.2900 c3         1 GSX       0.054700
     21 C17          9.0340    -2.3100     3.1670 c3         1 GSX      -0.107100
     22 C18          8.9260    -4.4990     2.0000 c          1 GSX       0.663100
     23 O4           8.5950    -4.7420     0.8370 o          1 GSX      -0.567100
     24 N3           8.5670    -5.2830     3.0940 n          1 GSX      -0.507800
     25 C19          8.9450    -5.0230     4.4870 c3         1 GSX       0.068500
     26 C20          9.3950    -6.3130     5.1600 c3         1 GSX       0.116400
     27 O5           8.3880    -7.3210     5.0310 os         1 GSX      -0.407600
     28 C22          8.1460    -7.6320     3.6570 c3         1 GSX       0.116400
     29 C23          7.6380    -6.3990     2.9210 c3         1 GSX       0.068500
     30 S3           6.7040     0.7330    -0.7530 ss         1 GSX       0.072200
     31 S6           2.5740    -0.0010    -1.4810 ss         1 GSX       0.006200
     32 H2           2.2200     0.0010     2.1180 ha         1 GSX       0.164000
     33 H3           4.7570     0.0010     1.4020 ha         1 GSX       0.164000
     34 H8           4.7680    -1.0630    -3.2220 ha         1 GSX       0.161000
     35 H7           7.2600    -0.7210    -4.0160 ha         1 GSX       0.165000
     36 H1          10.3650     0.2040    -0.0750 hn         1 GSX       0.451800
     37 H12          9.4470    -1.9280    -2.0140 h1         1 GSX       0.106700
     38 H131        11.3600    -3.1870    -1.5010 hc         1 GSX       0.072200
     39 H132        12.0550    -1.5610    -1.2660 hc         1 GSX       0.072200
     40 H141        11.8810    -1.6880     1.0530 h1         1 GSX       0.044200
     41 H142        12.0290    -3.4350     0.7140 h1         1 GSX       0.044200
     42 H16         10.6950    -3.5960     2.7780 h1         1 GSX       0.072700
     43 H171         9.2060    -1.3020     2.8090 hc         1 GSX       0.052367
     44 H172         9.3890    -2.3970     4.1870 hc         1 GSX       0.052367
     45 H173         7.9740    -2.5290     3.1340 hc         1 GSX       0.052367
     46 H191         8.0910    -4.6210     5.0190 h1         1 GSX       0.059700
     47 H192         9.7570    -4.3060     4.5090 h1         1 GSX       0.059700
     48 H231         7.5460    -6.6260     1.8660 h1         1 GSX       0.059700
     49 H232         6.6690    -6.1210     3.3180 h1         1 GSX       0.059700
     50 H201         9.5750    -6.1220     6.2110 h1         1 GSX       0.055200
     51 H202        10.3090    -6.6590     4.6920 h1         1 GSX       0.055200
     52 H221         7.4030    -8.4170     3.5930 h1         1 GSX       0.055200
     53 H222         9.0690    -7.9660     3.1980 h1         1 GSX       0.055200
@<TRIPOS>BOND
     1     1     2 1
     2     2     3 2
     3     2    31 1
     4     3     4 1
     5     3    32 1
     6     4     5 2
     7     4    33 1
     8     5     6 1
     9     5    31 1
    10     6     7 2
    11     6    30 1
    12     7     8 1
    13     7    34 1
    14     8     9 2
    15     8    35 1
    16     9    10 1
    17     9    30 1
    18    10    11 2
    19    10    12 2
    20    10    13 1
    21    13    14 1
    22    13    36 1
    23    14    15 1
    24    14    17 1
    25    14    37 1
    26    15    16 1
    27    15    38 1
    28    15    39 1
    29    16    19 1
    30    16    40 1
    31    16    41 1
    32    17    18 2
    33    17    19 1
    34    19    20 1
    35    20    21 1
    36    20    22 1
    37    20    42 1
    38    21    43 1
    39    21    44 1
    40    21    45 1
    41    22    23 2
    42    22    24 1
    43    24    25 1
    44    24    29 1
    45    25    26 1
    46    25    46 1
    47    25    47 1
    48    26    27 1
    49    26    50 1
    50    26    51 1
    51    27    28 1
    52    28    29 1
    53    28    52 1
    54    28    53 1
    55    29    48 1
    56    29    49 1
@<TRIPOS>SUBSTRUCTURE
     1 GSX         1 TEMP              0 ****  ****    0 ROOT
