@<TRIPOS>MOLECULE
GSY
   25    26     1     0     0
SMALL
bcc


@<TRIPOS>ATOM
      1 O15          0.0000     0.0000     0.0000 oh         1 GSY      -0.572800
      2 C14          1.4290     0.0000     0.0000 c3         1 GSY       0.222400
      3 C13          1.9400     0.0000     1.4420 c3         1 GSY      -0.103700
      4 N7           3.4040    -0.0000     1.4420 na         1 GSY       0.455100
      5 C5           4.2320     1.1150     1.4410 cc         1 GSY      -0.472200
      6 C6           4.0170     2.4990     1.4400 c          1 GSY       0.653100
      7 O11          2.8840     2.9540     1.4410 o          1 GSY      -0.616500
      8 N1           5.0910     3.3190     1.4410 ns         1 GSY       0.009600
      9 C2           6.3510     2.8000     1.4400 cc         1 GSY      -0.031200
     10 N2           7.4240     3.6570     1.4390 nz         1 GSY       0.219400
     11 N3           6.5700     1.5060     1.4410 nd         1 GSY      -0.383700
     12 C4           5.5450     0.6300     1.4410 cd         1 GSY       0.457300
     13 N9           5.4750    -0.7100     1.4410 nd         1 GSY      -0.555000
     14 C8           4.2160    -1.0940     1.4470 cc         1 GSY       0.388800
     15 S10          3.6640    -2.7670     1.4550 sh         1 GSY      -0.321100
     16 H15         -0.3140    -0.2400    -0.8560 ho         1 GSY       0.411000
     17 H141         1.7900    -0.8840    -0.5110 h1         1 GSY      -0.001800
     18 H142         1.7900     0.8840    -0.5110 h1         1 GSY      -0.001800
     19 H131         1.5790    -0.8840     1.9530 h1         1 GSY       0.080200
     20 H132         1.5790     0.8850     1.9520 h1         1 GSY       0.080200
     21 H1           4.9600     4.3110     1.4410 hn         1 GSY       0.190500
     22 H21N         8.2740     3.1270     1.4380 hn         1 GSY       0.217467
     23 H22N         7.3900     4.2340     0.6230 hn         1 GSY       0.217467
     24 H10          4.6550    -3.5580     1.8500 hs         1 GSY       0.239800
     25 H23          7.3890     4.2370     2.2540 hn         1 GSY       0.217467
@<TRIPOS>BOND
     1     1     2 1   
     2     1    16 1   
     3     2     3 1   
     4     2    17 1   
     5     2    18 1   
     6     3     4 1   
     7     3    19 1   
     8     3    20 1   
     9     4     5 1   
    10     4    14 1   
    11     5     6 1   
    12     5    12 2   
    13     6     7 2   
    14     6     8 1   
    15     8     9 1   
    16     8    21 1   
    17     9    10 1   
    18     9    11 2   
    19    10    22 1   
    20    10    23 1   
    21    10    25 1   
    22    11    12 1   
    23    12    13 1   
    24    13    14 2   
    25    14    15 1   
    26    15    24 1   
@<TRIPOS>SUBSTRUCTURE
     1 GSY         1 TEMP              0 ****  ****    0 ROOT
