@<TRIPOS>MOLECULE
molecule
   55    57     1     0     0
SMALL
bcc


@<TRIPOS>ATOM
      1 CAZ          0.0000     0.0000     0.0000 c3         1 GSZ      -0.082100
      2 CAN          1.5270     0.0000     0.0000 c3         1 GSZ      -0.144700
      3 CBA          2.0600     0.0000     1.4310 c3         1 GSZ      -0.082100
      4 CAL          2.0530    -1.2020    -0.7830 c          1 GSZ       0.670100
      5 OAM          2.3000    -2.2830    -0.2540 o          1 GSZ      -0.558100
      6 NAK          2.2110    -0.9300    -2.1370 ns         1 GSZ      -0.614900
      7 CAC          2.6910    -1.9080    -3.0800 c3         1 GSZ       0.178000
      8 CAB          4.2100    -1.8280    -3.2800 c3         1 GSZ       0.125100
      9 OAG          4.6700    -3.1080    -3.7090 oh         1 GSZ      -0.600800
     10 CAA          4.6500    -0.7370    -4.2800 c3         1 GSZ       0.132100
     11 OAH          4.3670     0.5500    -3.7230 oh         1 GSZ      -0.610800
     12 CAF          3.9610    -0.8130    -5.6610 c3         1 GSZ       0.033000
     13 CAI          4.5750    -1.8880    -6.5620 c3         1 GSZ       0.131400
     14 OAJ          5.9400    -1.5750    -6.7660 oh         1 GSZ      -0.600800
     15 NAE          2.5420    -1.0710    -5.4950 na         1 GSZ      -0.003100
     16 CAQ          1.5340    -0.9070    -6.4420 cc         1 GSZ      -0.123300
     17 CAD          1.9750    -1.6140    -4.3470 cc         1 GSZ       0.026100
     18 NAO          0.6310    -1.7750    -4.6250 na         1 GSZ      -0.139100
     19 CAP          0.3680    -1.3340    -5.9170 cd         1 GSZ      -0.047600
     20 CAR         -0.9830    -1.3700    -6.5190 c3         1 GSZ      -0.027100
     21 CAS         -2.0070    -0.4740    -5.8020 c3         1 GSZ      -0.032100
     22 CAT         -1.5810     0.9720    -5.7220 ca         1 GSZ      -0.107300
     23 CAU         -0.8440     1.4030    -4.6320 ca         1 GSZ      -0.128000
     24 CAV         -0.4500     2.7390    -4.5570 ca         1 GSZ      -0.118000
     25 CAW         -0.7990     3.6270    -5.5750 ca         1 GSZ      -0.114000
     26 CAX         -1.5420     3.1780    -6.6670 ca         1 GSZ      -0.118000
     27 CAY         -1.9360     1.8410    -6.7410 ca         1 GSZ      -0.128000
     28 HAZ1        -0.3610     0.6940     0.7500 hc         1 GSZ       0.050367
     29 HAZ2        -0.3610     0.3020    -0.9760 hc         1 GSZ       0.050367
     30 HAZ3        -0.3610    -0.9960     0.2260 hc         1 GSZ       0.050367
     31 HAN          1.8680     0.9030    -0.4910 hc         1 GSZ       0.057700
     32 HBA1         1.7520     0.9100     1.9310 hc         1 GSZ       0.050367
     33 HBA2         1.6640    -0.8560     1.9630 hc         1 GSZ       0.050367
     34 HBA3         3.1420    -0.0540     1.4130 hc         1 GSZ       0.050367
     35 HAK          1.9820    -0.0150    -2.4710 hn         1 GSZ       0.336500
     36 HAC          2.4260    -2.9020    -2.7410 h1         1 GSZ       0.124700
     37 HAB          4.6640    -1.6050    -2.3210 h1         1 GSZ       0.089700
     38 HAG          5.1480    -3.5210    -3.0100 ho         1 GSZ       0.438000
     39 HAA          5.7190    -0.8240    -4.4280 h1         1 GSZ       0.104700
     40 HAH          5.1620     1.0540    -3.6760 ho         1 GSZ       0.435000
     41 HAF          4.0750     0.1480    -6.1480 h1         1 GSZ       0.110700
     42 HAI1         4.0580    -1.9040    -7.5140 h1         1 GSZ       0.052200
     43 HAI2         4.4900    -2.8560    -6.0840 h1         1 GSZ       0.052200
     44 HAJ          6.2450    -1.9990    -7.5510 ho         1 GSZ       0.435000
     45 HAQ          1.6660    -0.5020    -7.4380 h4         1 GSZ       0.223000
     46 HAO         -0.0490    -2.1490    -3.9920 hn         1 GSZ       0.353700
     47 HAR1        -0.9080    -1.0520    -7.5510 hc         1 GSZ       0.082200
     48 HAR2        -1.3430    -2.3920    -6.4970 hc         1 GSZ       0.082200
     49 HAS1        -2.1520    -0.8500    -4.7970 hc         1 GSZ       0.062200
     50 HAS2        -2.9490    -0.5300    -6.3340 hc         1 GSZ       0.062200
     51 HAU         -0.5750     0.7100    -3.8440 ha         1 GSZ       0.125000
     52 HAY         -2.5130     1.4870    -7.5870 ha         1 GSZ       0.125000
     53 HAV          0.1270     3.0880    -3.7090 ha         1 GSZ       0.141000
     54 HAW         -0.4940     4.6650    -5.5180 ha         1 GSZ       0.146000
     55 HAX         -1.8140     3.8670    -7.4580 ha         1 GSZ       0.141000
@<TRIPOS>BOND
     1     1     2 1
     2     1    28 1
     3     1    29 1
     4     1    30 1
     5     2     3 1
     6     2     4 1
     7     2    31 1
     8     3    32 1
     9     3    33 1
    10     3    34 1
    11     4     5 2
    12     4     6 1
    13     6     7 1
    14     6    35 1
    15     7     8 1
    16     7    17 1
    17     7    36 1
    18     8     9 1
    19     8    10 1
    20     8    37 1
    21     9    38 1
    22    10    11 1
    23    10    12 1
    24    10    39 1
    25    11    40 1
    26    12    13 1
    27    12    15 1
    28    12    41 1
    29    13    14 1
    30    13    42 1
    31    13    43 1
    32    14    44 1
    33    15    16 1
    34    15    17 2
    35    16    19 2
    36    16    45 1
    37    17    18 1
    38    18    19 1
    39    18    46 1
    40    19    20 1
    41    20    21 1
    42    20    47 1
    43    20    48 1
    44    21    22 1
    45    21    49 1
    46    21    50 1
    47    22    23 ar
    48    22    27 ar
    49    23    24 ar
    50    23    51 1
    51    24    25 ar
    52    24    53 1
    53    25    26 ar
    54    25    54 1
    55    26    27 ar
    56    26    55 1
    57    27    52 1
@<TRIPOS>SUBSTRUCTURE
     1 GSZ         1 TEMP              0 ****  ****    0 ROOT
