@<TRIPOS>MOLECULE
molecule
   26    26     1     0     0
SMALL
bcc


@<TRIPOS>ATOM
      1 C8           0.0000     0.0000     0.0000 ca         1 GT0       0.439200
      2 N1           1.3170     0.0000     0.0000 nb         1 GT0      -0.678000
      3 C7           2.0120     0.0000     1.1210 ca         1 GT0       0.401600
      4 C4           1.3710    -0.0000     2.3510 ca         1 GT0      -0.000200
      5 C6          -0.0200    -0.0000     2.3870 ca         1 GT0      -0.072300
      6 C2          -0.7110     0.0000     1.1860 ca         1 GT0      -0.188600
      7 C1          -0.7580    -0.0010     3.7020 c3         1 GT0       0.187700
      8 O3          -0.9910     1.3470     4.1170 os         1 GT0      -0.414600
      9 C3          -1.6880     1.4600     5.3590 c3         1 GT0       0.128700
     10 C5          -2.2180     0.0060     1.1730 c3         1 GT0       0.189700
     11 O2          -2.6820     0.0110    -0.1780 oh         1 GT0      -0.612800
     12 C9           3.5180    -0.0000     1.0660 c3         1 GT0      -0.138400
     13 O1           2.0900    -0.0020     3.5030 oh         1 GT0      -0.507100
     14 H1          -0.5340     0.0000    -0.9430 h4         1 GT0       0.049100
     15 H2          -0.1630    -0.5110     4.4500 h1         1 GT0       0.031200
     16 H3          -1.7050    -0.5120     3.5840 h1         1 GT0       0.031200
     17 H4          -1.0960     1.0110     6.1470 h1         1 GT0       0.031033
     18 H5          -2.6410     0.9490     5.2860 h1         1 GT0       0.031033
     19 H6          -1.8560     2.5060     5.5840 h1         1 GT0       0.031033
     20 H7          -2.5860    -0.8790     1.6780 h1         1 GT0       0.037700
     21 H8          -2.5800     0.8900     1.6830 h1         1 GT0       0.037700
     22 H9          -3.6250     0.0100    -0.1870 ho         1 GT0       0.409000
     23 H10          3.8940    -0.9330     1.4690 hc         1 GT0       0.054367
     24 H11          3.8420     0.1050     0.0380 hc         1 GT0       0.054367
     25 H12          3.9010     0.8260     1.6520 hc         1 GT0       0.054367
     26 H13          2.3250    -0.8870     3.7260 ho         1 GT0       0.416000
@<TRIPOS>BOND
     1    12     3 1
     2    13     4 1
     3     3     4 ar
     4     3     2 ar
     5     4     5 ar
     6     2     1 ar
     7     5     7 1
     8     5     6 ar
     9     7     8 1
    10     1     6 ar
    11     6    10 1
    12     8     9 1
    13    10    11 1
    14     1    14 1
    15     7    15 1
    16     7    16 1
    17     9    17 1
    18     9    18 1
    19     9    19 1
    20    10    20 1
    21    10    21 1
    22    11    22 1
    23    12    23 1
    24    12    24 1
    25    12    25 1
    26    13    26 1
@<TRIPOS>SUBSTRUCTURE
     1 GT0         1 TEMP              0 ****  ****    0 ROOT
