@<TRIPOS>MOLECULE
GT0
   26    26     1     0     0
SMALL
bcc


@<TRIPOS>ATOM
      1 C8          0.0200    0.1380    0.0360 ca        1 GT0      0.389200
      2 N1          1.3500    0.0020   -0.0480 nb        1 GT0     -0.636000
      3 C7          2.0540   -0.1330    1.1010 ca        1 GT0      0.336600
      4 C4          1.4100   -0.1300    2.3670 ca        1 GT0      0.009800
      5 C6          0.0080    0.0150    2.4500 ca        1 GT0     -0.074300
      6 C2         -0.7010    0.1520    1.2510 ca        1 GT0     -0.147600
      7 C1         -0.6540   -0.0310    3.7880 c3        1 GT0      0.172700
      8 O3         -1.6310    1.0110    3.8610 os        1 GT0     -0.428600
      9 C3         -2.0780    1.2360    5.1880 c3        1 GT0      0.116700
     10 C5         -2.1800    0.3320    1.2590 c3        1 GT0      0.179700
     11 O2         -2.6900    0.0800   -0.0440 oh        1 GT0     -0.605800
     12 C9          3.5390   -0.2850    1.0330 c3        1 GT0     -0.152400
     13 O1          2.0870   -0.2860    3.5550 oh        1 GT0     -0.500100
     14 H1         -0.5200    0.2360   -0.9260 h4        1 GT0      0.046100
     15 H2         -1.1770   -1.0200    3.9180 h1        1 GT0      0.051200
     16 H3          0.1020    0.0970    4.6100 h1        1 GT0      0.051200
     17 H4         -2.5450    0.3120    5.6090 h1        1 GT0      0.035033
     18 H5         -2.8380    2.0510    5.0900 h1        1 GT0      0.035033
     19 H6         -1.2320    1.5660    5.8400 h1        1 GT0      0.035033
     20 H7         -2.6490   -0.3810    1.9940 h1        1 GT0      0.048200
     21 H8         -2.4250    1.3840    1.5750 h1        1 GT0      0.048200
     22 H9         -3.6320    0.2810   -0.0050 ho        1 GT0      0.405000
     23 H10         3.9080   -0.3090   -0.0220 hc        1 GT0      0.053700
     24 H11         4.0310    0.5730    1.5560 hc        1 GT0      0.053700
     25 H12         3.8430   -1.2390    1.5320 hc        1 GT0      0.053700
     26 H13         3.0370   -0.2370    3.3730 ho        1 GT0      0.426000
@<TRIPOS>BOND
     1    1    2 ar  
     2    1    6 ar  
     3    1   14 1   
     4    2    3 ar  
     5    3    4 ar  
     6    3   12 1   
     7    4    5 ar  
     8    4   13 1   
     9    5    6 ar  
    10    5    7 1   
    11    6   10 1   
    12    7    8 1   
    13    7   15 1   
    14    7   16 1   
    15    8    9 1   
    16    9   17 1   
    17    9   18 1   
    18    9   19 1   
    19   10   11 1   
    20   10   20 1   
    21   10   21 1   
    22   11   22 1   
    23   12   23 1   
    24   12   24 1   
    25   12   25 1   
    26   13   26 1   
@<TRIPOS>SUBSTRUCTURE
     1 GT0         1 TEMP              0 ****  ****    0 ROOT
