@<TRIPOS>MOLECULE
molecule
   29    29     1     0     0
SMALL
bcc


@<TRIPOS>ATOM
      1 O1           0.0000     0.0000     0.0000 oh         1 GT1      -0.526100
      2 C4           1.3600     0.0000     0.0000 ca         1 GT1      -0.027200
      3 C6           2.0650     0.0000     1.1990 ca         1 GT1      -0.103300
      4 C1           1.3410    -0.0000     2.5210 c3         1 GT1       0.192700
      5 O3           1.1130    -1.3480     2.9390 os         1 GT1      -0.407600
      6 C3           0.4280    -1.4620     4.1880 c3         1 GT1       0.132700
      7 C2           3.4500     0.0000     1.1480 ca         1 GT1      -0.132600
      8 C5           4.2590     0.0010     2.4200 c3         1 GT1       0.246700
      9 O2           5.6510     0.0010     2.0970 os         1 GT1      -0.577200
     10 C8           4.0790     0.0010    -0.0820 ca         1 GT1       0.443200
     11 N1           3.3810     0.0010    -1.2000 nb         1 GT1      -0.703000
     12 C7           2.0630    -0.0050    -1.1960 ca         1 GT1       0.351600
     13 C9           1.3120    -0.0050    -2.5020 c3         1 GT1      -0.125400
     14 P1           6.8090     0.0010     3.2160 p5         1 GT1       1.167900
     15 O4           6.6090     1.1430     4.1350 o          1 GT1      -0.902833
     16 O5           6.7510    -1.3750     4.0490 o          1 GT1      -0.902833
     17 O6           8.2460     0.1340     2.5000 o          1 GT1      -0.902833
     18 H1          -0.3140     0.8840    -0.0950 ho         1 GT1       0.394000
     19 H2           0.3910     0.5100     2.4130 h1         1 GT1       0.028700
     20 H3           1.9430     0.5110     3.2630 h1         1 GT1       0.028700
     21 H4           0.3280    -2.5080     4.4500 h1         1 GT1       0.019700
     22 H5           0.9930    -0.9490     4.9570 h1         1 GT1       0.019700
     23 H6          -0.5550    -1.0150     4.1030 h1         1 GT1       0.019700
     24 H7           4.0210     0.8850     2.9990 h1         1 GT1       0.039700
     25 H8           4.0220    -0.8840     2.9990 h1         1 GT1       0.039700
     26 H9           5.1620     0.0040    -0.1290 h4         1 GT1       0.084100
     27 H10          2.0130    -0.1040    -3.3220 hc         1 GT1       0.033033
     28 H11          0.7660     0.9250    -2.6040 hc         1 GT1       0.033033
     29 H12          0.6170    -0.8350    -2.5190 hc         1 GT1       0.033033
@<TRIPOS>BOND
     1    15    14 1
     2    16    14 1
     3    14     9 1
     4    14    17 1
     5     9     8 1
     6    10    11 ar
     7    10     7 ar
     8     8     7 1
     9    11    12 ar
    10     7     3 ar
    11     5     6 1
    12     5     4 1
    13    12    13 1
    14    12     2 ar
    15     3     2 ar
    16     3     4 1
    17     2     1 1
    18     1    18 1
    19     4    19 1
    20     4    20 1
    21     6    21 1
    22     6    22 1
    23     6    23 1
    24     8    24 1
    25     8    25 1
    26    10    26 1
    27    13    27 1
    28    13    28 1
    29    13    29 1
@<TRIPOS>SUBSTRUCTURE
     1 GT1         1 TEMP              0 ****  ****    0 ROOT
