@<TRIPOS>MOLECULE
GT1
   29    29     1     0     0
SMALL
bcc


@<TRIPOS>ATOM
      1 O1          0.1370   -0.4050    0.2240 oh        1 GT1     -0.544100
      2 C4          1.4640   -0.0500    0.1220 ca        1 GT1      0.015800
      3 C6          2.3160    0.1760    1.2230 ca        1 GT1     -0.122300
      4 C1          1.8710    0.0500    2.6470 c3        1 GT1      0.107700
      5 O3          0.9050   -0.9840    2.8340 os        1 GT1     -0.480600
      6 C3          1.4730   -2.2250    3.2360 c3        1 GT1      0.095700
      7 C2          3.6330    0.5810    0.9490 ca        1 GT1     -0.116600
      8 C5          4.6430    0.9370    2.0220 c3        1 GT1      0.254700
      9 O2          5.2000   -0.1690    2.6010 os        1 GT1     -0.556200
     10 C8          4.0170    0.7050   -0.4070 ca        1 GT1      0.335200
     11 N1          3.2170    0.4820   -1.4610 nb        1 GT1     -0.686000
     12 C7          1.9410    0.1090   -1.2080 ca        1 GT1      0.312600
     13 C9          0.9940   -0.1410   -2.3330 c3        1 GT1     -0.110400
     14 P1          5.2280   -0.1800    4.3450 p5        1 GT1      1.322900
     15 O4          5.1810    1.2910    4.6510 o         1 GT1     -0.918833
     16 O5          3.9290   -0.9040    4.6180 o         1 GT1     -0.918833
     17 O6          6.4920   -0.9190    4.6550 o         1 GT1     -0.918833
     18 H1         -0.0580   -0.6040    1.1520 ho        1 GT1      0.446000
     19 H2          1.3290    0.9890    2.9450 h1        1 GT1      0.119200
     20 H3          2.7730   -0.1190    3.3460 h1        1 GT1      0.119200
     21 H4          1.7930   -2.7900    2.3250 h1        1 GT1      0.047033
     22 H5          0.6350   -2.7670    3.7420 h1        1 GT1      0.047033
     23 H6          2.3480   -2.0700    3.9320 h1        1 GT1      0.047033
     24 H7          4.1430    1.5980    2.7930 h1        1 GT1      0.010200
     25 H8          5.4470    1.5520    1.5060 h1        1 GT1      0.010200
     26 H9          5.0550    0.9940   -0.6520 h4        1 GT1      0.008100
     27 H10         0.5240   -1.1470   -2.2000 hc        1 GT1      0.025367
     28 H11         1.4950   -0.1030   -3.3300 hc        1 GT1      0.025367
     29 H12         0.1800    0.6260   -2.3090 hc        1 GT1      0.025367
@<TRIPOS>BOND
     1    1    2 1   
     2    1   18 1   
     3    2    3 ar  
     4    2   12 ar  
     5    3    4 1   
     6    3    7 ar  
     7    4    5 1   
     8    4   19 1   
     9    4   20 1   
    10    5    6 1   
    11    6   21 1   
    12    6   22 1   
    13    6   23 1   
    14    7    8 1   
    15    7   10 ar  
    16    8    9 1   
    17    8   24 1   
    18    8   25 1   
    19    9   14 1   
    20   10   11 ar  
    21   10   26 1   
    22   11   12 ar  
    23   12   13 1   
    24   13   27 1   
    25   13   28 1   
    26   13   29 1   
    27   14   15 1   
    28   14   16 1   
    29   14   17 1   
@<TRIPOS>SUBSTRUCTURE
     1 GT1         1 TEMP              0 ****  ****    0 ROOT
