@<TRIPOS>MOLECULE
molecule
   31    32     1     0     0
SMALL
bcc


@<TRIPOS>ATOM
      1 N1           0.0000     0.0000     0.0000 ns         1 GT2      -0.475100
      2 C2           1.3480     0.0000     0.0000 c          1 GT2       0.672700
      3 C3           3.4710    -0.0000     3.6790 ca         1 GT2       0.059400
      4 C5           3.4840     0.0070     1.2830 ca         1 GT2       0.088400
      5 C6           2.0860     0.0000     1.2800 ca         1 GT2      -0.148600
      6 C8           2.0850     0.0000     3.6810 ca         1 GT2      -0.133000
      7 C16         -2.1020     0.2760    -3.5990 ca         1 GT2      -0.121000
      8 C17         -0.8930    -0.4200    -3.5520 ca         1 GT2      -0.119600
      9 C18         -0.1920    -0.5110    -2.3490 ca         1 GT2      -0.059000
     10 C19         -0.6990     0.0890    -1.2090 ca         1 GT2       0.060600
     11 C20         -1.9050     0.7810    -1.2660 ca         1 GT2       0.012400
     12 C21         -2.5990     0.8760    -2.4590 ca         1 GT2      -0.112000
     13 C4           4.1670     0.0070     2.4830 ca         1 GT2      -0.130000
     14 C7           1.3910     0.0000     2.4910 ca         1 GT2      -0.085000
     15 N26         -1.0360    -0.9690    -5.9330 ns         1 GT2      -0.471400
     16 O14          1.9560     0.0010    -1.0530 o          1 GT2      -0.562100
     17 O27         -0.5240    -1.5810    -7.1030 oh         1 GT2      -0.357100
     18 O28          0.6960    -1.6640    -4.7300 o          1 GT2      -0.561100
     19 Cl1          4.3590     0.0150    -0.2170 cl         1 GT2      -0.039400
     20 Cl2          4.3370    -0.0010     5.1830 cl         1 GT2      -0.087400
     21 Cl3         -2.5410     1.5310     0.1660 cl         1 GT2      -0.105400
     22 H1          -0.5000    -0.1030     0.8610 hn         1 GT2       0.334500
     23 H2           1.5460    -0.0030     4.6210 ha         1 GT2       0.152000
     24 H3          -2.6480     0.3510    -4.5320 ha         1 GT2       0.128000
     25 H4           0.7470    -1.0500    -2.3070 ha         1 GT2       0.202000
     26 H5          -3.5370     1.4160    -2.4980 ha         1 GT2       0.150000
     27 H6           5.2500     0.0090     2.4880 ha         1 GT2       0.164000
     28 H7           0.3080     0.0010     2.4940 ha         1 GT2       0.138000
     29 H8          -1.8970    -0.4590    -5.9710 hn         1 GT2       0.319500
     30 H9          -1.1070    -1.4150    -7.8250 ho         1 GT2       0.399000
     31 C25         -0.3580    -1.0580    -4.7730 c          1 GT2       0.685700
@<TRIPOS>BOND
     1    12     7 ar
     2    12    11 ar
     3     7     8 ar
     4    21    11 1
     5    11    10 ar
     6    15    17 1
     7    15    31 1
     8     8    31 1
     9     8     9 ar
    10    31    18 2
    11    10     9 ar
    12    10     1 1
    13    16     2 2
    14     1     2 1
    15     2     5 1
    16     5    14 ar
    17     5     4 ar
    18    14     6 ar
    19    19     4 1
    20     4    13 ar
    21     6     3 ar
    22    13     3 ar
    23     3    20 1
    24     1    22 1
    25     6    23 1
    26     7    24 1
    27     9    25 1
    28    12    26 1
    29    13    27 1
    30    14    28 1
    31    15    29 1
    32    17    30 1
@<TRIPOS>SUBSTRUCTURE
     1 GT2         1 TEMP              0 ****  ****    0 ROOT
