@<TRIPOS>MOLECULE
GT2
   31    32     1     0     0
SMALL
bcc


@<TRIPOS>ATOM
      1 N1           0.0000     0.0000     0.0000 ns         1 GT2      -0.040100
      2 C2           1.3480     0.0000     0.0000 c          1 GT2       0.586700
      3 C3           3.4710    -0.0000     3.6790 ca         1 GT2      -0.004600
      4 C5           3.4840     0.0070     1.2830 ca         1 GT2       0.017400
      5 C6           2.0860     0.0000     1.2800 ca         1 GT2      -0.163600
      6 C8           2.0850     0.0000     3.6810 ca         1 GT2      -0.112000
      7 C16         -2.1020     0.2760    -3.5990 ca         1 GT2      -0.097000
      8 C17         -0.8930    -0.4200    -3.5520 ca         1 GT2      -0.129600
      9 C18         -0.1920    -0.5110    -2.3490 ca         1 GT2      -0.032000
     10 C19         -0.6990     0.0890    -1.2090 ca         1 GT2      -0.088400
     11 C20         -1.9050     0.7810    -1.2660 ca         1 GT2      -0.050600
     12 C21         -2.5990     0.8760    -2.4590 ca         1 GT2      -0.087000
     13 C4           4.1670     0.0070     2.4830 ca         1 GT2      -0.113000
     14 C7           1.3910     0.0000     2.4910 ca         1 GT2      -0.061000
     15 N26         -1.0360    -0.9690    -5.9330 ns         1 GT2      -0.060400
     16 O14          1.9560     0.0010    -1.0530 o          1 GT2      -0.616100
     17 O27         -0.5240    -1.5810    -7.1030 oh         1 GT2      -0.435100
     18 O28          0.6960    -1.6640    -4.7300 o          1 GT2      -0.607100
     19 Cl1          4.3590     0.0150    -0.2170 cl         1 GT2       0.058600
     20 Cl2          4.3370    -0.0010     5.1830 cl         1 GT2      -0.010400
     21 Cl3         -2.5410     1.5310     0.1660 cl         1 GT2      -0.023400
     22 H1          -0.5000    -0.1030     0.8610 hn         1 GT2       0.180500
     23 H2           1.5460    -0.0030     4.6210 ha         1 GT2       0.119000
     24 H3          -2.6480     0.3510    -4.5320 ha         1 GT2       0.101000
     25 H4           0.7470    -1.0500    -2.3070 ha         1 GT2       0.175000
     26 H5          -3.5370     1.4160    -2.4980 ha         1 GT2       0.117000
     27 H6           5.2500     0.0090     2.4880 ha         1 GT2       0.130000
     28 H7           0.3080     0.0010     2.4940 ha         1 GT2       0.106000
     29 H8          -1.8970    -0.4590    -5.9710 hn         1 GT2       0.159500
     30 H9          -1.1070    -1.4150    -7.8250 ho         1 GT2       0.391000
     31 C25         -0.3580    -1.0580    -4.7730 c          1 GT2       0.591700
@<TRIPOS>BOND
     1     1     2 1   
     2     1    10 1   
     3     1    22 1   
     4     2     5 1   
     5     2    16 2   
     6     3     6 ar  
     7     3    13 ar  
     8     3    20 1   
     9     4     5 ar  
    10     4    13 ar  
    11     4    19 1   
    12     5    14 ar  
    13     6    14 ar  
    14     6    23 1   
    15     7     8 ar  
    16     7    12 ar  
    17     7    24 1   
    18     8     9 ar  
    19     8    31 1   
    20     9    10 ar  
    21     9    25 1   
    22    10    11 ar  
    23    11    12 ar  
    24    11    21 1   
    25    12    26 1   
    26    13    27 1   
    27    14    28 1   
    28    15    17 1   
    29    15    29 1   
    30    15    31 1   
    31    17    30 1   
    32    18    31 2   
@<TRIPOS>SUBSTRUCTURE
     1 GT2         1 TEMP              0 ****  ****    0 ROOT
