@<TRIPOS>MOLECULE
GT8
   95    97     1     0     0
SMALL
bcc


@<TRIPOS>ATOM
      1 C4           0.0000     0.0000     0.0000 c3         1 GT8      -0.028400
      2 C5           1.5300     0.0000     0.0000 c3         1 GT8      -0.022900
      3 C6           2.0400     0.0000     1.4430 c3         1 GT8      -0.025400
      4 C8          -4.0810    -1.3730    -0.7160 c3         1 GT8       0.000700
      5 C24         -6.2950    -3.6210     1.4520 c3         1 GT8      -0.057300
      6 C2          -0.0010    -1.2480     2.1640 c3         1 GT8      -0.028400
      7 C1           1.5290    -1.2480     2.1640 c3         1 GT8      -0.022900
      8 C3          -0.5110    -1.2480     0.7210 c3         1 GT8      -0.048700
      9 C50         -2.0410    -1.2470     0.7220 c3         1 GT8      -0.026400
     10 C9          -4.5900    -1.4950    -2.1530 c3         1 GT8       0.172100
     11 O21         -6.0110    -1.6480    -2.1430 oh         1 GT8      -0.559800
     12 C12         -4.2190    -0.2330    -2.9340 c3         1 GT8       0.145800
     13 O13         -2.7980    -0.1580    -3.0710 oh         1 GT8      -0.593800
     14 N22         -4.5700    -2.5060     0.0730 ns         1 GT8      -0.180900
     15 C23         -5.7920    -2.4550     0.6400 c          1 GT8       0.565100
     16 O49         -6.4870    -1.4720     0.4960 o          1 GT8      -0.633100
     17 C40         -6.3460    -4.8710     0.5720 c3         1 GT8       0.028900
     18 C41         -6.7320    -6.0620     1.4120 ca         1 GT8      -0.128300
     19 C48         -5.7520    -6.8140     2.0320 ca         1 GT8      -0.048000
     20 C47         -6.1010    -7.9060     2.8030 ca         1 GT8      -0.165000
     21 C44         -7.4380    -8.2460     2.9550 ca         1 GT8       0.154100
     22 O45         -7.7850    -9.3200     3.7120 os         1 GT8      -0.309900
     23 C46         -9.1790    -9.6120     3.8240 c3         1 GT8       0.243700
     24 C43         -8.4200    -7.4900     2.3310 ca         1 GT8      -0.165000
     25 C42         -8.0640    -6.3960     1.5650 ca         1 GT8      -0.048000
     26 N25         -7.6380    -3.3220     1.9550 ns         1 GT8      -0.159900
     27 O39         -7.3860    -4.7260     3.6550 o          1 GT8      -0.653100
     28 C27         -9.4720    -3.6230     3.5870 c3         1 GT8      -0.051300
     29 C38         -9.5750    -2.1310     3.9130 c3         1 GT8      -0.011100
     30 N28         -9.7240    -4.4060     4.7990 ns         1 GT8      -0.177900
     31 C29        -10.9900    -4.7030     5.1590 c          1 GT8       0.568100
     32 O37        -11.9180    -4.3230     4.4780 o          1 GT8      -0.643100
     33 C30        -11.2490    -5.5080     6.4050 c3         1 GT8       0.086800
     34 N31        -12.6960    -5.6950     6.5750 n3         1 GT8      -0.505600
     35 C36        -13.3640    -4.4150     6.8480 c3         1 GT8       0.097800
     36 C35        -14.8740    -4.6460     6.9590 c3         1 GT8       0.217400
     37 O34        -15.1290    -5.6180     7.9760 os         1 GT8      -0.416600
     38 C33        -14.4940    -6.8780     7.7420 c3         1 GT8       0.217400
     39 C32        -12.9800    -6.6690     7.6390 c3         1 GT8       0.097800
     40 H1          -0.3600    -0.0030    -1.0220 hc         1 GT8       0.018450
     41 H2          -0.3600     0.8840     0.5120 hc         1 GT8       0.018450
     42 H3           1.8900     0.8860    -0.5090 hc         1 GT8       0.012200
     43 H4           1.8900    -0.8860    -0.5090 hc         1 GT8       0.012200
     44 H5           1.6760     0.8840     1.9530 hc         1 GT8       0.013200
     45 H6           3.1230    -0.0030     1.4420 hc         1 GT8       0.013200
     46 H7          -2.1900    -2.3000    -1.1470 hc         1 GT8       0.049200
     47 H8          -2.1900    -0.5370    -1.3020 hc         1 GT8       0.049200
     48 H9          -4.4410    -0.4480    -0.2820 h1         1 GT8       0.079700
     49 H10         -5.8050     0.9570    -2.1050 hc         1 GT8       0.017700
     50 H11         -4.4380     1.8950    -2.7230 hc         1 GT8       0.017700
     51 H12         -4.2920     1.0220    -1.1910 hc         1 GT8       0.017700
     52 H13         -5.6270    -3.7940     2.2880 h1         1 GT8       0.069700
     53 H14         -0.3610    -2.1350     2.6730 hc         1 GT8       0.018450
     54 H15         -0.3610    -0.3620     2.6730 hc         1 GT8       0.018450
     55 H16          1.8890    -2.1320     1.6520 hc         1 GT8       0.012200
     56 H17          1.8890    -1.2460     3.1860 hc         1 GT8       0.012200
     57 H18         -0.1460    -2.1320     0.2120 hc         1 GT8       0.028700
     58 H19         -2.4030    -2.0830     1.3080 hc         1 GT8       0.016200
     59 H20         -2.4010    -0.3210     1.1530 hc         1 GT8       0.016200
     60 H21         -4.1370    -2.3580    -2.6250 h1         1 GT8       0.007700
     61 H22         -6.2620    -2.2960    -2.7800 ho         1 GT8       0.383000
     62 H23         -4.6350    -1.2350    -4.7890 hc         1 GT8       0.017700
     63 H24         -5.9360    -0.1780    -4.2260 hc         1 GT8       0.017700
     64 H25         -4.4720     0.5210    -4.9310 hc         1 GT8       0.017700
     65 H26         -2.5820     0.2070    -3.9130 ho         1 GT8       0.396000
     66 H27         -4.0050    -3.3260     0.1740 hn         1 GT8       0.176500
     67 H28         -5.3720    -5.0420     0.1300 hc         1 GT8       0.021700
     68 H29         -7.0790    -4.7300    -0.2130 hc         1 GT8       0.021700
     69 H30         -4.7090    -6.5480     1.9120 ha         1 GT8       0.099000
     70 H31         -5.3330    -8.4960     3.2880 ha         1 GT8       0.117500
     71 H32         -9.5920    -9.7860     2.8380 h1         1 GT8      -0.002967
     72 H33         -9.6880    -8.7740     4.2850 h1         1 GT8      -0.002967
     73 H34         -9.3160   -10.4970     4.4340 h1         1 GT8      -0.002967
     74 H35         -9.4640    -7.7520     2.4500 ha         1 GT8       0.117500
     75 H36         -8.8300    -5.8050     1.0780 ha         1 GT8       0.099000
     76 H37         -8.2240    -2.6770     1.4640 hn         1 GT8       0.201500
     77 H38        -10.2060    -3.8790     2.8330 h1         1 GT8       0.066700
     78 H39         -9.7620    -1.5750     3.0030 hc         1 GT8       0.016367
     79 H40        -10.3880    -1.9690     4.6100 hc         1 GT8       0.016367
     80 H41         -8.6460    -1.7940     4.3580 hc         1 GT8       0.016367
     81 H42         -8.9590    -4.7050     5.3710 hn         1 GT8       0.196500
     82 H43        -10.8490    -4.9830     7.2640 h1         1 GT8       0.022200
     83 H44        -10.7680    -6.4750     6.3170 h1         1 GT8       0.022200
     84 H46        -12.9930    -4.0060     7.7800 h1         1 GT8       0.022450
     85 H47        -13.1640    -3.7230     6.0390 h1         1 GT8       0.022450
     86 H48        -15.2540    -5.0090     6.0110 h1         1 GT8       0.012950
     87 H49        -15.3640    -3.7160     7.2180 h1         1 GT8       0.012950
     88 H50        -14.8630    -7.3010     6.8150 h1         1 GT8       0.012950
     89 H51        -14.7100    -7.5500     8.5640 h1         1 GT8       0.012950
     90 H52        -12.6040    -6.2920     8.5830 h1         1 GT8       0.022450
     91 H53        -12.5010    -7.6110     7.4030 h1         1 GT8       0.022450
     92 C7          -2.5510    -1.3740    -0.7150 c3         1 GT8      -0.071400
     93 C11         -4.8620    -0.2850    -4.3210 c3         1 GT8      -0.032600
     94 C10         -4.7250     1.0000    -2.1830 c3         1 GT8      -0.032600
     95 C26         -8.0910    -3.9300     3.0700 c          1 GT8       0.562100
@<TRIPOS>BOND
     1     1     2 1   
     2     1     8 1   
     3     1    40 1   
     4     1    41 1   
     5     2     3 1   
     6     2    42 1   
     7     2    43 1   
     8     3     7 1   
     9     3    44 1   
    10     3    45 1   
    11     4    10 1   
    12     4    14 1   
    13     4    48 1   
    14     4    92 1   
    15     5    15 1   
    16     5    17 1   
    17     5    26 1   
    18     5    52 1   
    19     6     7 1   
    20     6     8 1   
    21     6    53 1   
    22     6    54 1   
    23     7    55 1   
    24     7    56 1   
    25     8     9 1   
    26     8    57 1   
    27     9    58 1   
    28     9    59 1   
    29     9    92 1   
    30    10    11 1   
    31    10    12 1   
    32    10    60 1   
    33    11    61 1   
    34    12    13 1   
    35    12    93 1   
    36    12    94 1   
    37    13    65 1   
    38    14    15 1   
    39    14    66 1   
    40    15    16 2   
    41    17    18 1   
    42    17    67 1   
    43    17    68 1   
    44    18    19 ar  
    45    18    25 ar  
    46    19    20 ar  
    47    19    69 1   
    48    20    21 ar  
    49    20    70 1   
    50    21    22 1   
    51    21    24 ar  
    52    22    23 1   
    53    23    71 1   
    54    23    72 1   
    55    23    73 1   
    56    24    25 ar  
    57    24    74 1   
    58    25    75 1   
    59    26    76 1   
    60    26    95 1   
    61    27    95 2   
    62    28    29 1   
    63    28    30 1   
    64    28    77 1   
    65    28    95 1   
    66    29    78 1   
    67    29    79 1   
    68    29    80 1   
    69    30    31 1   
    70    30    81 1   
    71    31    32 2   
    72    31    33 1   
    73    33    34 1   
    74    33    82 1   
    75    33    83 1   
    76    34    35 1   
    77    34    39 1   
    78    35    36 1   
    79    35    84 1   
    80    35    85 1   
    81    36    37 1   
    82    36    86 1   
    83    36    87 1   
    84    37    38 1   
    85    38    39 1   
    86    38    88 1   
    87    38    89 1   
    88    39    90 1   
    89    39    91 1   
    90    46    92 1   
    91    47    92 1   
    92    49    94 1   
    93    50    94 1   
    94    51    94 1   
    95    62    93 1   
    96    63    93 1   
    97    64    93 1   
@<TRIPOS>SUBSTRUCTURE
     1 GT8         1 TEMP              0 ****  ****    0 ROOT
