@<TRIPOS>MOLECULE
molecule
   51    51     1     0     0
SMALL
bcc


@<TRIPOS>ATOM
      1 N1           0.0000     0.0000     0.0000 nz         1 GTB      -0.801600
      2 CA1          1.4690     0.0000     0.0000 c3         1 GTB      -0.021500
      3 C1           1.9720     0.0000     1.4210 c          1 GTB       0.874600
      4 O11          3.2250    -0.3970     1.6900 o          1 GTB      -0.778800
      5 O12          1.2460     0.3580     2.3190 o          1 GTB      -0.778800
      6 CB1          1.9790     1.2490    -0.7220 c3         1 GTB      -0.073400
      7 CG1          1.5740     1.1880    -2.1950 c3         1 GTB      -0.177400
      8 CD1          2.0770     2.4180    -2.9060 c          1 GTB       0.670100
      9 OE1          2.6980     3.2610    -2.2950 o          1 GTB      -0.584100
     10 N2           1.8360     2.5810    -4.2220 ns         1 GTB      -0.557900
     11 CA2          2.3250     3.7770    -4.9130 c3         1 GTB       0.053700
     12 C2           1.3320     4.8980    -4.7400 c          1 GTB       0.631100
     13 O2           0.3170     4.7150    -4.1030 o          1 GTB      -0.636100
     14 CB2          2.4950     3.4720    -6.4030 c3         1 GTB       0.005700
     15 SG2          3.6890     2.1220    -6.6110 ss         1 GTB      -0.337200
     16 N3           1.5740     6.1020    -5.2940 ns         1 GTB      -0.540900
     17 CA3          0.6080     7.1920    -5.1260 c3         1 GTB      -0.006000
     18 C3           1.1110     8.4220    -5.8380 c          1 GTB       0.883600
     19 O31          0.3860     9.5520    -5.8180 o          1 GTB      -0.840800
     20 O32          2.1660     8.3920    -6.4240 o          1 GTB      -0.840800
     21 C'           3.7550     1.9100    -8.4120 c3         1 GTB       0.046000
     22 C1'          4.7210     0.8040    -8.7520 ca         1 GTB      -0.022300
     23 C2'          4.2740    -0.5000    -8.8470 ca         1 GTB      -0.121500
     24 C3'          5.1610    -1.5140    -9.1580 ca         1 GTB      -0.070500
     25 C4'          6.4940    -1.2230    -9.3770 ca         1 GTB      -0.158200
     26 N41          7.4440    -2.3080    -9.7120 no         1 GTB       0.295200
     27 O41          7.0500    -3.4580    -9.7930 o          1 GTB      -0.211000
     28 O42          8.6180    -2.0520    -9.9040 o          1 GTB      -0.211000
     29 C5'          6.9410     0.0830    -9.2850 ca         1 GTB      -0.070500
     30 C6'          6.0540     1.0960    -8.9760 ca         1 GTB      -0.121500
     31 HN11        -0.3340    -0.6820    -0.6520 hn         1 GTB       0.438800
     32 HN12        -0.3330    -0.2240     0.9170 hn         1 GTB       0.438800
     33 HA1          1.8300    -0.8850    -0.5100 hx         1 GTB       0.096700
     34 HB11         1.5480     2.1310    -0.2650 hc         1 GTB       0.104700
     35 HB12         3.0590     1.2940    -0.6460 hc         1 GTB       0.104700
     36 HG11         0.4950     1.1420    -2.2710 hc         1 GTB       0.044200
     37 HG12         2.0060     0.3050    -2.6520 hc         1 GTB       0.044200
     38 HN2          1.2840     1.9090    -4.7170 hn         1 GTB       0.313500
     39 HA2          3.2790     4.0710    -4.4940 h1         1 GTB       0.108700
     40 HB21         1.5400     3.1770    -6.8230 h1         1 GTB       0.077700
     41 HB22         2.8560     4.3560    -6.9140 h1         1 GTB       0.077700
     42 HN3          2.4350     6.2680    -5.7760 hn         1 GTB       0.332500
     43 HA31        -0.3460     6.8970    -5.5450 h1         1 GTB       0.049200
     44 HA32         0.4880     7.4080    -4.0710 h1         1 GTB       0.049200
     45 H'1          2.7690     1.6540    -8.7820 h1         1 GTB       0.072700
     46 H'2          4.0850     2.8330    -8.8730 h1         1 GTB       0.072700
     47 H2'          3.2290    -0.7280    -8.6750 ha         1 GTB       0.153500
     48 H3'          4.8100    -2.5360    -9.2320 ha         1 GTB       0.164500
     49 H5'          7.9860     0.3110    -9.4580 ha         1 GTB       0.164500
     50 H6'          6.4030     2.1190    -8.9030 ha         1 GTB       0.153500
     51 H13         -0.3340     0.9100    -0.2510 hn         1 GTB       0.438800
@<TRIPOS>BOND
     1     1     2 1
     2     1    31 1
     3     1    32 1
     4     2     3 1
     5     2     6 1
     6     2    33 1
     7     3     4 1
     8     3     5 1
     9     6     7 1
    10     6    34 1
    11     6    35 1
    12     7     8 1
    13     7    36 1
    14     7    37 1
    15     8     9 2
    16     8    10 1
    17    10    11 1
    18    10    38 1
    19    11    12 1
    20    11    14 1
    21    11    39 1
    22    12    13 2
    23    12    16 1
    24    14    15 1
    25    14    40 1
    26    14    41 1
    27    15    21 1
    28    16    17 1
    29    16    42 1
    30    17    18 1
    31    17    43 1
    32    17    44 1
    33    18    19 1
    34    18    20 1
    35    21    22 1
    36    21    45 1
    37    21    46 1
    38    22    23 ar
    39    22    30 ar
    40    23    24 ar
    41    23    47 1
    42    24    25 ar
    43    24    48 1
    44    25    26 1
    45    25    29 ar
    46    26    27 1
    47    26    28 1
    48    29    30 ar
    49    29    49 1
    50    30    50 1
    51    51     1 1
@<TRIPOS>SUBSTRUCTURE
     1 GTB         1 TEMP              0 ****  ****    0 ROOT
