@<TRIPOS>MOLECULE
GTC
   27    28     1     0     0
SMALL
bcc


@<TRIPOS>ATOM
      1 C6           0.0000     0.0000     0.0000 c3         1 GTC      -0.008000
      2 C2          -0.0000    -1.2480     2.1640 c3         1 GTC      -0.013400
      3 C5           1.5300     0.0000     0.0000 c3         1 GTC      -0.150700
      4 C4           2.0400     0.0000     1.4430 c3         1 GTC       0.002600
      5 C10         -1.8100     0.3020    -3.1720 cs         1 GTC       0.155400
      6 C12          2.0320    -1.2310    -0.7100 c          1 GTC       0.989600
      7 O14          3.3520    -1.4440    -0.8320 o          1 GTC      -0.885800
      8 C3           1.5300    -1.2490     2.1640 c3         1 GTC      -0.035400
      9 C1          -0.5100    -1.2490     0.7210 c3         1 GTC      -0.068400
     10 C7          -0.5020    -0.0000    -1.4210 cc         1 GTC       0.217900
     11 N8           0.1480    -0.4430    -2.4490 n2         1 GTC      -0.492300
     12 N9          -0.6560    -0.2640    -3.5840 ns         1 GTC       0.258100
     13 N11         -1.7220     0.4720    -1.8370 ns         1 GTC       0.119600
     14 H6          -0.3590     0.8830     0.5140 hc         1 GTC       0.002700
     15 H2          -0.3600    -2.1330     2.6740 hc         1 GTC      -0.006300
     16 H2A         -0.3590    -0.3610     2.6720 hc         1 GTC      -0.006300
     17 H5           1.8900     0.8870    -0.5080 hc         1 GTC       0.025700
     18 H4           1.6760     0.8840     1.9530 hc         1 GTC       0.007200
     19 H4A          3.1230    -0.0020     1.4420 hc         1 GTC       0.007200
     20 H3           1.8890    -2.1330     1.6510 hc         1 GTC       0.022200
     21 H3A          1.8900    -1.2460     3.1860 hc         1 GTC       0.022200
     22 H1          -0.1460    -2.1330     0.2120 hc         1 GTC       0.044700
     23 H1A         -1.5930    -1.2470     0.7220 hc         1 GTC       0.044700
     24 HN9         -0.4200    -0.5120    -4.5240 hn         1 GTC       0.223500
     25 HN11        -2.4280     0.8700    -1.2500 hn         1 GTC       0.198500
     26 O13          1.2470    -2.0270    -1.1690 o          1 GTC      -0.885800
     27 S15         -3.1390     0.7320    -4.1630 s          1 GTC      -0.786400
@<TRIPOS>BOND
     1     1     3 1   
     2     1     9 1   
     3     1    10 1   
     4     1    14 1   
     5     2     8 1   
     6     2     9 1   
     7     2    15 1   
     8     2    16 1   
     9     3     4 1   
    10     3     6 1   
    11     3    17 1   
    12     4     8 1   
    13     4    18 1   
    14     4    19 1   
    15     5    12 1   
    16     5    13 1   
    17     5    27 2   
    18     6     7 1   
    19     6    26 1   
    20     8    20 1   
    21     8    21 1   
    22     9    22 1   
    23     9    23 1   
    24    10    11 2   
    25    10    13 1   
    26    11    12 1   
    27    12    24 1   
    28    13    25 1   
@<TRIPOS>SUBSTRUCTURE
     1 GTC         1 TEMP              0 ****  ****    0 ROOT
