@<TRIPOS>MOLECULE
molecule
   41    42     1     0     0
SMALL
bcc


@<TRIPOS>ATOM
      1 F1           0.0000     0.0000     0.0000 f          1 GTF      -0.230800
      2 N1           2.3110     1.3580     1.8520 n          1 GTF      -0.376000
      3 C2           3.2790     2.0150     1.1870 c          1 GTF       0.857900
      4 F2           1.8890     1.1030    -0.7060 f          1 GTF      -0.230800
      5 O2           3.8430     1.4680     0.2540 o          1 GTF      -0.669500
      6 N3           3.6310     3.2520     1.5310 nc         1 GTF      -0.822100
      7 C4           3.0340     3.8710     2.5420 cd         1 GTF       0.206500
      8 N4           3.4060     5.1500     2.8880 nz         1 GTF      -0.635600
      9 C5           2.0160     3.2100     3.2600 cd         1 GTF      -0.300600
     10 C6           1.6690     1.9520     2.8970 cc         1 GTF      -0.068400
     11 PA           6.0250    -4.1630     0.8630 p5         1 GTF       1.444800
     12 PB           7.9900    -5.1870     2.8310 p5         1 GTF       1.548800
     13 PG           9.1300    -5.1960     5.5670 p5         1 GTF       1.295900
     14 C1'          1.9400     0.0000     1.4470 c3         1 GTF       0.285500
     15 O1A          5.7360    -5.4240    -0.0940 o          1 GTF      -0.842000
     16 O1B          8.2780    -6.6720     2.2830 o          1 GTF      -0.731500
     17 O1G          8.4830    -4.8240     6.9940 o          1 GTF      -0.651167
     18 C2'          1.3990     0.0000     0.0000 c3         1 GTF       0.329600
     19 O2A          7.0470    -3.2930     0.2400 o          1 GTF      -0.842000
     20 O2B          9.0490    -4.2700     2.3530 o          1 GTF      -0.731500
     21 O2G          9.8090    -6.6530     5.6490 o          1 GTF      -0.651167
     22 C3'          1.9400    -1.3160    -0.6030 c3         1 GTF       0.070100
     23 O3'          0.8630    -2.1690    -0.9940 oh         1 GTF      -0.594800
     24 O3A          6.5610    -4.6830     2.2900 os         1 GTF      -0.724800
     25 O3B          7.9790    -5.2020     4.4410 os         1 GTF      -0.717800
     26 O3G         10.1590    -4.1910     5.2160 o          1 GTF      -0.651167
     27 C4'          2.7450    -1.9550     0.5510 c3         1 GTF       0.129100
     28 O4'          3.1090    -0.8480     1.4040 os         1 GTF      -0.334600
     29 C5'          3.9980    -2.6440     0.0090 c3         1 GTF       0.241400
     30 O5'          4.6650    -3.3260     1.0730 os         1 GTF      -0.598200
     31 H1           3.7340     5.1580     3.8330 hn         1 GTF       0.373800
     32 H2           4.1370     5.4600     2.2790 hn         1 GTF       0.373800
     33 H3           1.5180     3.7000     4.0870 ha         1 GTF       0.076000
     34 H4           0.8900     1.4240     3.4330 h4         1 GTF       0.121000
     35 H5           1.2020    -0.4140     2.1230 h2         1 GTF       0.057700
     36 H10          2.5890    -1.1060    -1.4440 h1         1 GTF       0.081700
     37 H11          0.8070    -2.1940    -1.9350 ho         1 GTF       0.393000
     38 H12          2.1260    -2.6590     1.0950 h1         1 GTF       0.062700
     39 H13          3.7160    -3.3580    -0.7560 h1         1 GTF       0.040200
     40 H14          4.6630    -1.9030    -0.4170 h1         1 GTF       0.040200
     41 H43          2.6160     5.7590     2.8120 hn         1 GTF       0.373800
@<TRIPOS>BOND
     1    26    13 1
     2    17    13 1
     3    13    21 1
     4    13    25 1
     5    25    12 1
     6    16    12 1
     7     4    18 1
     8    22    23 1
     9    22    18 1
    10    22    27 1
    11    19    11 1
    12    12    20 1
    13    12    24 1
    14    29    27 1
    15    29    30 1
    16     1    18 1
    17    18    14 1
    18    27    28 1
    19    30    11 1
    20    11    24 1
    21    11    15 1
    22    14    28 1
    23    14     2 1
    24    10     2 1
    25    10     9 2
    26     2     3 1
    27     9     7 1
    28     3     5 2
    29     3     6 1
    30     7     6 2
    31     7     8 1
    32     8    31 1
    33     8    32 1
    34     9    33 1
    35    10    34 1
    36    14    35 1
    37    22    36 1
    38    23    37 1
    39    27    38 1
    40    29    39 1
    41    29    40 1
    42    41     8 1
@<TRIPOS>SUBSTRUCTURE
     1 GTF         1 TEMP              0 ****  ****    0 ROOT
