@<TRIPOS>MOLECULE
GTF
   41    42     1     0     0
SMALL
bcc


@<TRIPOS>ATOM
      1 F1           0.0000     0.0000     0.0000 f          1 GTF      -0.220800
      2 N1           2.3110     1.3580     1.8520 n          1 GTF      -0.014000
      3 C2           3.2790     2.0150     1.1870 c          1 GTF       0.759900
      4 F2           1.8890     1.1030    -0.7060 f          1 GTF      -0.220800
      5 O2           3.8430     1.4680     0.2540 o          1 GTF      -0.787500
      6 N3           3.6310     3.2520     1.5310 nc         1 GTF      -0.856100
      7 C4           3.0340     3.8710     2.5420 cd         1 GTF      -0.160500
      8 N4           3.4060     5.1500     2.8880 nz         1 GTF       0.347400
      9 C5           2.0160     3.2100     3.2600 cd         1 GTF      -0.204600
     10 C6           1.6690     1.9520     2.8970 cc         1 GTF      -0.271400
     11 PA           6.0250    -4.1630     0.8630 p5         1 GTF       0.980800
     12 PB           7.9900    -5.1870     2.8310 p5         1 GTF       1.082800
     13 PG           9.1300    -5.1960     5.5670 p5         1 GTF       0.870900
     14 C1'          1.9400     0.0000     1.4470 c3         1 GTF       0.209500
     15 O1A          5.7360    -5.4240    -0.0940 o          1 GTF      -0.682000
     16 O1B          8.2780    -6.6720     2.2830 o          1 GTF      -0.499500
     17 O1G          8.4830    -4.8240     6.9940 o          1 GTF      -0.480500
     18 C2'          1.3990     0.0000     0.0000 c3         1 GTF       0.300600
     19 O2A          7.0470    -3.2930     0.2400 o          1 GTF      -0.682000
     20 O2B          9.0490    -4.2700     2.3530 o          1 GTF      -0.499500
     21 O2G          9.8090    -6.6530     5.6490 o          1 GTF      -0.480500
     22 C3'          1.9400    -1.3160    -0.6030 c3         1 GTF       0.109100
     23 O3'          0.8630    -2.1690    -0.9940 oh         1 GTF      -0.580800
     24 O3A          6.5610    -4.6830     2.2900 os         1 GTF      -0.496800
     25 O3B          7.9790    -5.2020     4.4410 os         1 GTF      -0.468800
     26 O3G         10.1590    -4.1910     5.2160 o          1 GTF      -0.480500
     27 C4'          2.7450    -1.9550     0.5510 c3         1 GTF       0.146100
     28 O4'          3.1090    -0.8480     1.4040 os         1 GTF      -0.322600
     29 C5'          3.9980    -2.6440     0.0090 c3         1 GTF       0.313400
     30 O5'          4.6650    -3.3260     1.0730 os         1 GTF      -0.499200
     31 H1           3.7340     5.1580     3.8330 hn         1 GTF       0.076467
     32 H2           4.1370     5.4600     2.2790 hn         1 GTF       0.076467
     33 H3           1.5180     3.7000     4.0870 ha         1 GTF       0.046000
     34 H4           0.8900     1.4240     3.4330 h4         1 GTF       0.087000
     35 H5           1.2020    -0.4140     2.1230 h2         1 GTF       0.013700
     36 H10          2.5890    -1.1060    -1.4440 h1         1 GTF       0.045700
     37 H11          0.8070    -2.1940    -1.9350 ho         1 GTF       0.373000
     38 H12          2.1260    -2.6590     1.0950 h1         1 GTF       0.016700
     39 H13          3.7160    -3.3580    -0.7560 h1         1 GTF      -0.011300
     40 H14          4.6630    -1.9030    -0.4170 h1         1 GTF      -0.011300
     41 H43          2.6160     5.7590     2.8120 hn         1 GTF       0.076467
@<TRIPOS>BOND
     1     1    18 1   
     2     2     3 1   
     3     2    10 1   
     4     2    14 1   
     5     3     5 2   
     6     3     6 1   
     7     4    18 1   
     8     6     7 2   
     9     7     8 1   
    10     7     9 1   
    11     8    31 1   
    12     8    32 1   
    13     8    41 1   
    14     9    10 2   
    15     9    33 1   
    16    10    34 1   
    17    11    15 1   
    18    11    19 1   
    19    11    24 1   
    20    11    30 1   
    21    12    16 1   
    22    12    20 1   
    23    12    24 1   
    24    12    25 1   
    25    13    17 1   
    26    13    21 1   
    27    13    25 1   
    28    13    26 1   
    29    14    18 1   
    30    14    28 1   
    31    14    35 1   
    32    18    22 1   
    33    22    23 1   
    34    22    27 1   
    35    22    36 1   
    36    23    37 1   
    37    27    28 1   
    38    27    29 1   
    39    27    38 1   
    40    29    30 1   
    41    29    39 1   
    42    29    40 1   
@<TRIPOS>SUBSTRUCTURE
     1 GTF         1 TEMP              0 ****  ****    0 ROOT
