@<TRIPOS>MOLECULE
molecule
   31    33     1     0     0
SMALL
bcc


@<TRIPOS>ATOM
      1 NJ           0.0000     0.0000     0.0000 nc         1 GTI      -0.504100
      2 NK           0.6040    -0.0000     2.1650 nd         1 GTI      -0.766000
      3 NL           5.4820     1.0590     3.3830 n7         1 GTI      -0.823200
      4 NQ           3.0050    -0.0000     2.4640 nh         1 GTI      -0.659300
      5 CAA         -4.4540    -0.0090     2.3920 ca         1 GTI      -0.112000
      6 CAB         -3.4710    -0.0220     3.3650 ca         1 GTI      -0.141500
      7 CAC         -4.1100     0.0000     1.0530 ca         1 GTI      -0.141500
      8 CAD         -2.1390    -0.0170     3.0030 ca         1 GTI      -0.087500
      9 CAE         -2.7820    -0.0000     0.6790 ca         1 GTI      -0.087500
     10 CAF          4.2980     1.0580     4.2520 c3         1 GTI       0.155800
     11 CAG          5.4510    -0.0800     2.4540 c3         1 GTI       0.155800
     12 CAH          3.0350     1.1390     3.3910 c3         1 GTI       0.163800
     13 CAI          4.1880     0.0000     1.5940 c3         1 GTI       0.163800
     14 SAM          1.6990     0.0000     0.0000 ss         1 GTI      -0.031300
     15 CAN         -1.7870     0.0000     1.6550 ca         1 GTI      -0.129500
     16 CAO         -0.3570    -0.0000     1.2600 cd         1 GTI       0.685500
     17 CAP          1.8410     0.0000     1.7170 cc         1 GTI       0.661300
     18 HAA         -5.4990    -0.0110     2.6810 ha         1 GTI       0.129000
     19 HAB         -3.7470    -0.0320     4.4120 ha         1 GTI       0.132500
     20 HAC         -4.8850     0.0050     0.2950 ha         1 GTI       0.132500
     21 HAD         -1.3700    -0.0210     3.7660 ha         1 GTI       0.152000
     22 HAE         -2.5140     0.0100    -0.3700 ha         1 GTI       0.152000
     23 HAF          4.2790     0.1450     4.8340 h1         1 GTI       0.046700
     24 HAFA         4.3370     1.9140     4.9150 h1         1 GTI       0.046700
     25 HAG          6.3250    -0.0480     1.8150 h1         1 GTI       0.046700
     26 HAGA         5.4440    -1.0050     3.0190 h1         1 GTI       0.046700
     27 HAH          3.0440     2.0630     2.8260 h1         1 GTI       0.061700
     28 HAHA         2.1610     1.1070     4.0300 h1         1 GTI       0.061700
     29 HAI          4.1480    -0.8560     0.9320 h1         1 GTI       0.061700
     30 HAIA         4.2070     0.9140     1.0120 h1         1 GTI       0.061700
     31 HNL          6.3080     1.0080     3.9450 hn         1 GTI       0.361800
@<TRIPOS>BOND
     1    16     1 2
     2     1    14 1
     3     2    16 1
     4     2    17 2
     5    10     3 1
     6     3    11 1
     7     3    31 1
     8    12     4 1
     9    17     4 1
    10     4    13 1
    11     7     5 ar
    12     5     6 ar
    13     5    18 1
    14     6     8 ar
    15     6    19 1
    16     7     9 ar
    17     7    20 1
    18    15     8 ar
    19     8    21 1
    20     9    15 ar
    21     9    22 1
    22    10    12 1
    23    10    23 1
    24    10    24 1
    25    11    13 1
    26    11    25 1
    27    11    26 1
    28    12    27 1
    29    12    28 1
    30    13    29 1
    31    13    30 1
    32    17    14 1
    33    15    16 1
@<TRIPOS>SUBSTRUCTURE
     1 GTI         1 TEMP              0 ****  ****    0 ROOT
