@<TRIPOS>MOLECULE
GTL
   25    25     1     0     0
SMALL
bcc


@<TRIPOS>ATOM
      1 C1           0.0000     0.0000     0.0000 c2         1 GTL       0.427200
      2 N1          -0.6700    -0.8130    -0.7480 n2         1 GTL      -0.451200
      3 C2           1.5150     0.0000     0.0000 c3         1 GTL       0.125800
      4 N5          -0.6390     0.9070     0.8330 nu         1 GTL      -0.497200
      5 O7           0.0040    -1.6350    -1.6820 oh         1 GTL      -0.338500
      6 O2           1.9960    -1.1670    -0.6680 oh         1 GTL      -0.561800
      7 C3           1.9980     0.0000     1.4550 c3         1 GTL       0.150100
      8 O3           3.4210     0.1230     1.4840 oh         1 GTL      -0.583800
      9 C4           1.3670     1.1780     2.2010 c3         1 GTL       0.157100
     10 O4           1.7050     2.3980     1.5380 oh         1 GTL      -0.574800
     11 C5          -0.1560     1.0170     2.2180 c3         1 GTL       0.139500
     12 C6          -0.7940     2.2360     2.8880 c3         1 GTL       0.215400
     13 O6          -2.2030     2.0340     3.0020 oh         1 GTL      -0.590800
     14 H2           1.8770     0.8890    -0.5020 h1         1 GTL       0.038700
     15 H5          -1.4010     1.4660     0.5040 hn         1 GTL       0.313800
     16 H7          -0.6280    -2.0990    -2.2060 ho         1 GTL       0.396000
     17 HA           2.6950    -0.9280    -1.2550 ho         1 GTL       0.394000
     18 H3           1.7010    -0.9270     1.9310 h1         1 GTL       0.020700
     19 HC           3.7850    -0.5630     2.0190 ho         1 GTL       0.392000
     20 H4           1.7380     1.2000     3.2190 h1         1 GTL       0.006700
     21 HD           2.3390     2.8700     2.0510 ho         1 GTL       0.394000
     22 HB          -0.4180     0.1190     2.7640 h1         1 GTL       0.036700
     23 H6C1        -0.6030     3.1190     2.2900 h1         1 GTL      -0.001800
     24 H6C2        -0.3670     2.3700     3.8750 h1         1 GTL      -0.001800
     25 H6          -2.5670     2.6800     3.5850 ho         1 GTL       0.394000
@<TRIPOS>BOND
     1     1     2 2   
     2     1     3 1   
     3     1     4 1   
     4     2     5 1   
     5     3     6 1   
     6     3     7 1   
     7     3    14 1   
     8     4    11 1   
     9     4    15 1   
    10     5    16 1   
    11     6    17 1   
    12     7     8 1   
    13     7     9 1   
    14     7    18 1   
    15     8    19 1   
    16     9    10 1   
    17     9    11 1   
    18     9    20 1   
    19    10    21 1   
    20    11    12 1   
    21    11    22 1   
    22    12    13 1   
    23    12    23 1   
    24    12    24 1   
    25    13    25 1   
@<TRIPOS>SUBSTRUCTURE
     1 GTL         1 TEMP              0 ****  ****    0 ROOT
