@<TRIPOS>MOLECULE
molecule
   27    27     1     0     0
SMALL
bcc


@<TRIPOS>ATOM
      1 C1           0.0000     0.0000     0.0000 c3         1 GTM       0.313900
      2 C2           1.5290     0.0000     0.0000 c3         1 GTM       0.117100
      3 C3           2.0290     0.0000     1.4480 c3         1 GTM       0.145100
      4 C4           1.3770     1.1700     2.1910 c3         1 GTM      -0.000600
      5 C5          -0.1420     1.0820     2.0250 c3         1 GTM       0.162100
      6 C6          -0.8040     2.2280     2.7920 c3         1 GTM       0.142400
      7 O1          -0.4750    -0.0340    -1.3470 os         1 GTM      -0.386600
      8 O2           2.0090    -1.1660    -0.6720 oh         1 GTM      -0.590800
      9 O3           3.4500     0.1500     1.4690 oh         1 GTM      -0.599800
     10 S4           1.8010     1.0860     3.9540 sh         1 GTM      -0.415900
     11 O5          -0.4830     1.1750     0.6460 os         1 GTM      -0.404600
     12 O6          -2.2220     2.1440     2.6450 oh         1 GTM      -0.601800
     13 H1          -0.3570    -0.8730     0.5340 h2         1 GTM       0.044700
     14 H2           1.8890     0.8880    -0.5050 h1         1 GTM       0.067700
     15 H3           1.7510    -0.9310     1.9260 h1         1 GTM       0.063700
     16 H4           1.7310     2.1050     1.7730 h1         1 GTM       0.090700
     17 H5          -0.4900     0.1340     2.4160 h1         1 GTM       0.062700
     18 H6C1        -0.4550     3.1750     2.3980 h1         1 GTM       0.042700
     19 H6C2        -0.5440     2.1570     3.8420 h1         1 GTM       0.042700
     20 H7C1        -2.3070    -0.3390    -2.2410 h1         1 GTM       0.039700
     21 H7C2        -2.2550     0.9590    -1.0400 h1         1 GTM       0.039700
     22 H7C3        -2.2290    -0.7310    -0.5170 h1         1 GTM       0.039700
     23 HB           2.5780    -0.9090    -1.3790 ho         1 GTM       0.416000
     24 HA           3.8370    -0.5860     1.9140 ho         1 GTM       0.418000
     25 HS4          2.7060     2.0160     4.2360 hs         1 GTM       0.230800
     26 H6          -2.6340     2.7890     3.1960 ho         1 GTM       0.405000
     27 C7          -1.9030    -0.0360    -1.2820 c3         1 GTM       0.115700
@<TRIPOS>BOND
     1     1     2 1
     2     1     7 1
     3     1    11 1
     4     1    13 1
     5     2     3 1
     6     2     8 1
     7     2    14 1
     8     3     4 1
     9     3     9 1
    10     3    15 1
    11     4     5 1
    12     4    10 1
    13     4    16 1
    14     5     6 1
    15     5    11 1
    16     5    17 1
    17     6    12 1
    18     6    18 1
    19     6    19 1
    20    27     7 1
    21    27    20 1
    22    27    21 1
    23    27    22 1
    24     8    23 1
    25     9    24 1
    26    10    25 1
    27    12    26 1
@<TRIPOS>SUBSTRUCTURE
     1 GTM         1 TEMP              0 ****  ****    0 ROOT
