@<TRIPOS>MOLECULE
GTM
   27    24     1     0     0
SMALL
bcc


@<TRIPOS>ATOM
      1 C1          0.1800   -1.9620    1.4720 c2        1 GTM     -0.342000
      2 C2          0.5410   -0.7950    0.6410 c3        1 GTM      0.034000
      3 C3          1.7730   -0.0720    1.2240 c3        1 GTM     -0.007000
      4 C4          1.5570    0.1690    2.7190 c3        1 GTM     -0.184000
      5 C5          1.0070   -1.0060    3.4030 c2        1 GTM     -0.270000
      6 C6         -1.7920    2.8820    1.5560 c2        1 GTM      0.158000
      7 O1          0.5880    1.7060   -1.6140 oh        1 GTM     -0.246000
      8 O2          0.7610   -1.1610   -0.7090 oh        1 GTM     -0.315000
      9 O3          2.0220    1.1340    0.5340 oh        1 GTM     -0.324000
     10 S4          3.0860    0.5330    3.5650 sh        1 GTM     -0.016000
     11 O5          0.3960   -1.9980    2.7780 os        1 GTM      0.128000
     12 O6         -0.8210    2.1370    1.4340 o         1 GTM     -0.315000
     13 H1          0.9340    0.7890   -1.5640 ho        1 GTM      0.274000
     14 H2         -0.3180   -2.8570    1.0910 h4        1 GTM      0.195000
     15 H3         -0.3270   -0.0640    0.5800 h1        1 GTM      0.145000
     16 H4          2.7030   -0.6870    1.0550 h1        1 GTM      0.135000
     17 H5          0.8590    1.0460    2.8410 h1        1 GTM      0.136000
     18 H6C1        1.0780   -1.1700    4.4850 h4        1 GTM      0.201000
     19 H6C2       -1.7660    3.7800    2.2090 h4        1 GTM      0.079500
     20 H7C1       -0.7210    2.8340   -2.5570 ha        1 GTM      0.007000
     21 H7C2       -1.9060    1.3190   -0.6830 ha        1 GTM      0.004500
     22 H7C3       -1.8600    0.7280   -1.0140 ha        1 GTM      0.004500
     23 HB          1.4980   -1.7850   -0.7270 ho        1 GTM      0.209000
     24 HA          1.2200    1.6780    0.5810 ho        1 GTM      0.227000
     25 HS4         3.5210    1.5000    2.7690 hs        1 GTM      0.050000
     26 H6         -2.7460    2.6950    1.0200 h4        1 GTM      0.079500
     27 C7         -0.3420    1.7760   -2.5360 c1        1 GTM     -0.049000
@<TRIPOS>BOND
     1    1    2 1   
     2    1   11 1   
     3    1   14 1   
     4    2    3 1   
     5    2    8 1   
     6    2   15 1   
     7    3    4 1   
     8    3    9 1   
     9    3   16 1   
    10    4    5 1   
    11    4   10 1   
    12    4   17 1   
    13    5   11 1   
    14    5   18 1   
    15    6   12 1   
    16    6   19 1   
    17    6   26 1   
    18    7   13 1   
    19    7   27 1   
    20    8   23 1   
    21    9   24 1   
    22   10   25 1   
    23   20   27 1   
    24   21   22 1   
@<TRIPOS>SUBSTRUCTURE
     1 GTM         1 TEMP              0 ****  ****    0 ROOT
