@<TRIPOS>MOLECULE
GTN
   46    47     1     0     0
SMALL
bcc


@<TRIPOS>ATOM
      1 PG         -0.3160    0.8400    0.2850 p4        1 GTN      1.530300
      2 N3B         1.3490    0.5030   -1.6960 n3        1 GTN     -1.096900
      3 O1G         0.8450    0.6710    1.1850 o         1 GTN     -0.829833
      4 O2G        -1.0050    2.1450    0.2370 o         1 GTN     -0.829833
      5 O3G        -1.0210   -0.3660   -0.1990 o         1 GTN     -0.878633
      6 PB          1.9880    1.1400   -3.0400 p5        1 GTN      1.557700
      7 O1B         2.8730    2.2920   -2.7350 o         1 GTN     -0.878500
      8 O2B         0.9930    1.2170   -4.1400 o         1 GTN     -0.878500
      9 PA          4.0950   -1.0550   -4.2680 p5        1 GTN      1.620800
     10 O1A         4.8730   -0.4440   -5.3880 o         1 GTN     -0.914000
     11 O2A         3.6480   -2.4570   -4.3960 o         1 GTN     -0.914000
     12 O3A         3.0670   -0.0800   -3.5830 os        1 GTN     -0.818800
     13 O5'         5.3350   -1.1290   -3.1030 os        1 GTN     -0.561200
     14 C5'         6.4990   -1.7210   -3.5330 c3        1 GTN      0.229400
     15 C4'         7.5440   -0.6530   -3.9270 c3        1 GTN      0.053100
     16 O4'         8.8560   -1.0700   -3.4700 os        1 GTN     -0.424600
     17 C3'         7.6240   -0.3870   -5.4420 c3        1 GTN      0.131100
     18 O3'         7.2270    0.9270   -5.7530 oh        1 GTN     -0.665800
     19 C2'         9.1150   -0.5430   -5.8180 c3        1 GTN      0.107100
     20 O2'         9.7900    0.6590   -6.1140 oh        1 GTN     -0.615800
     21 C1'         9.7740   -1.1690   -4.5420 c3        1 GTN      0.213800
     22 N9         10.1710   -2.5660   -4.7120 na        1 GTN     -0.178900
     23 C8          9.4090   -3.7220   -4.4510 cc        1 GTN      0.444400
     24 N7         10.0820   -4.8710   -4.6890 nd        1 GTN     -0.627000
     25 C5         11.3410   -4.4640   -5.1260 cd        1 GTN      0.192800
     26 C6         12.4960   -5.2340   -5.5310 c         1 GTN      0.646000
     27 O6         12.6350   -6.4700   -5.5790 o         1 GTN     -0.644500
     28 N1         13.6080   -4.4480   -5.9310 n         1 GTN     -0.499400
     29 C2         13.5920   -3.0380   -5.8900 cd        1 GTN      0.596800
     30 N2         14.8310   -2.3870   -6.2390 nh        1 GTN     -0.866800
     31 N3         12.5370   -2.2950   -5.5270 nc        1 GTN     -0.611100
     32 C4         11.4180   -3.0190   -5.1400 cc        1 GTN      0.060800
     33 H3B         1.9070    0.4290   -0.8780 hn        1 GTN      0.409800
     34 H5'1        6.9360   -2.3230   -2.6830 h1        1 GTN      0.004700
     35 H5'2        6.3020   -2.4050   -4.4060 h1        1 GTN      0.004700
     36 H4'         7.3250    0.3000   -3.3680 h1        1 GTN      0.105700
     37 H3'1        6.9930   -1.1210   -6.0160 h1        1 GTN      0.108700
     38 H3'2        6.2430    0.9320   -5.7040 ho        1 GTN      0.514000
     39 H2'1        9.2450   -1.1920   -6.7230 h1        1 GTN      0.067700
     40 H2'2        9.2640    1.3920   -5.7630 ho        1 GTN      0.437000
     41 H1'        10.7000   -0.5940   -4.2440 h2        1 GTN      0.089700
     42 H8          8.3710   -3.6360   -4.0830 h5        1 GTN      0.108100
     43 H1         14.4490   -4.9240   -6.1650 hn        1 GTN      0.321500
     44 H21        15.0200   -2.5060   -7.2160 hn        1 GTN      0.383300
     45 H22        14.8000   -1.4110   -6.0110 hn        1 GTN      0.383300
     46 H3B2        0.7120   -0.2540   -1.7690 hn        1 GTN      0.409800
@<TRIPOS>BOND
     1    1    3 1
     2    1    4 1
     3    1    5 2
     4    2    6 1
     5    2   33 1
     6    2   46 1
     7    6    7 1
     8    6    8 1
     9    6   12 1
    10    9   10 1
    11    9   11 1
    12    9   12 1
    13    9   13 1
    14   13   14 1
    15   14   15 1
    16   14   34 1
    17   14   35 1
    18   15   16 1
    19   15   17 1
    20   15   36 1
    21   16   21 1
    22   17   18 1
    23   17   19 1
    24   17   37 1
    25   18   38 1
    26   19   20 1
    27   19   21 1
    28   19   39 1
    29   20   40 1
    30   21   22 1
    31   21   41 1
    32   22   23 1
    33   22   32 1
    34   23   24 2
    35   23   42 1
    36   24   25 1
    37   25   26 1
    38   25   32 2
    39   26   27 2
    40   26   28 1
    41   28   29 1
    42   28   43 1
    43   29   30 1
    44   29   31 2
    45   30   44 1
    46   30   45 1
    47   31   32 1
@<TRIPOS>SUBSTRUCTURE
     1 GTN         1 TEMP              0 ****  ****    0 ROOT
