@<TRIPOS>MOLECULE
GTP
   45    47     1     0     0
SMALL
bcc


@<TRIPOS>ATOM
      1 PG           0.0000     0.0000     0.0000 p5         1 GTP       0.887900
      2 O1G          1.6100     0.0000     0.0000 o          1 GTP      -0.452167
      3 O2G         -0.5380     0.0000     1.5170 o          1 GTP      -0.452167
      4 O3G         -0.4930     1.2090    -0.6980 o          1 GTP      -0.452167
      5 O3B         -0.5370    -1.3130    -0.7600 os         1 GTP      -0.482800
      6 PB          -1.9360    -1.7140    -1.4500 p5         1 GTP       1.104800
      7 O1B         -2.0180    -1.0570    -2.9160 o          1 GTP      -0.495000
      8 O2B         -3.0560    -1.2130    -0.6210 o          1 GTP      -0.495000
      9 O3A         -2.0340    -3.3160    -1.5730 os         1 GTP      -0.496800
     10 PA          -3.2380    -4.3440    -1.8660 p5         1 GTP       0.983800
     11 O1A         -3.5320    -4.3880    -3.4490 o          1 GTP      -0.681500
     12 O2A         -4.4540    -3.8950    -1.1510 o          1 GTP      -0.681500
     13 O5'         -2.8260    -5.8140    -1.3560 os         1 GTP      -0.495200
     14 C5'         -3.7230    -6.9260    -1.3800 c3         1 GTP       0.312400
     15 C4'         -3.0160    -8.1640    -0.8280 c3         1 GTP       0.137100
     16 O4'         -2.7280    -7.9810     0.5700 os         1 GTP      -0.362600
     17 C3'         -3.9380    -9.3930    -0.9480 c3         1 GTP       0.117100
     18 O3'         -3.3310   -10.3950    -1.7660 oh         1 GTP      -0.568800
     19 C2'         -4.0890    -9.8990     0.5070 c3         1 GTP       0.114100
     20 O2'         -4.0370   -11.3270     0.5590 oh         1 GTP      -0.548800
     21 C1'         -2.8490    -9.2750     1.1970 c3         1 GTP       0.172800
     22 N9          -3.0790    -9.1300     2.6370 na         1 GTP       0.175100
     23 C8          -3.6100    -8.0410     3.2640 cc         1 GTP       0.133400
     24 N7          -3.6710    -8.2560     4.5460 nd         1 GTP      -0.527000
     25 C5          -3.1840    -9.4910     4.8170 cd         1 GTP      -0.050200
     26 C6          -3.0100   -10.2420     6.0030 c          1 GTP       0.603000
     27 O6          -3.3300    -9.7840     7.0870 o          1 GTP      -0.816500
     28 N1          -2.4790   -11.4810     5.9060 ns         1 GTP      -0.021400
     29 C2          -2.1240   -11.9850     4.6890 cd         1 GTP      -0.393200
     30 N2          -1.5880   -13.2460     4.6200 nz         1 GTP       0.359400
     31 N3          -2.2820   -11.2970     3.5800 nc         1 GTP      -0.697100
     32 C4          -2.8060   -10.0650     3.5980 cc         1 GTP       0.003800
     33 H5'         -4.5910    -6.7040    -0.7700 h1         1 GTP      -0.022300
     34 H5''        -4.0370    -7.1150    -2.3990 h1         1 GTP      -0.022300
     35 H4'         -2.0950    -8.3420    -1.3710 h1         1 GTP       0.027700
     36 H3'         -4.9020    -9.1020    -1.3470 h1         1 GTP       0.002700
     37 HO3'        -3.8760   -10.5590    -2.5180 ho         1 GTP       0.364000
     38 H2'         -5.0030    -9.5240     0.9510 h1         1 GTP       0.024700
     39 HO2'        -4.9130   -11.6710     0.6190 ho         1 GTP       0.360000
     40 H1'         -1.9670    -9.8730     1.0040 h2         1 GTP       0.039700
     41 H8          -3.9320    -7.1330     2.7690 h5         1 GTP       0.024100
     42 HN1         -2.3450   -12.0320     6.7310 hn         1 GTP       0.100500
     43 HN21        -0.8050   -13.3110     5.2400 hn         1 GTP       0.055467
     44 HN22        -2.2810   -13.9180     4.8860 hn         1 GTP       0.055467
     45 H23         -1.2880   -13.4300     3.6830 hn         1 GTP       0.055467
@<TRIPOS>BOND
     1     1     2 1   
     2     1     3 1   
     3     1     4 1   
     4     1     5 1   
     5     5     6 1   
     6     6     7 1   
     7     6     8 1   
     8     6     9 1   
     9     9    10 1   
    10    10    11 1   
    11    10    12 1   
    12    10    13 1   
    13    13    14 1   
    14    14    15 1   
    15    14    33 1   
    16    14    34 1   
    17    15    16 1   
    18    15    17 1   
    19    15    35 1   
    20    16    21 1   
    21    17    18 1   
    22    17    19 1   
    23    17    36 1   
    24    18    37 1   
    25    19    20 1   
    26    19    21 1   
    27    19    38 1   
    28    20    39 1   
    29    21    22 1   
    30    21    40 1   
    31    22    23 1   
    32    22    32 1   
    33    23    24 2   
    34    23    41 1   
    35    24    25 1   
    36    25    26 1   
    37    25    32 2   
    38    26    27 2   
    39    26    28 1   
    40    28    29 1   
    41    28    42 1   
    42    29    30 1   
    43    29    31 2   
    44    30    43 1   
    45    30    44 1   
    46    30    45 1   
    47    31    32 1   
@<TRIPOS>SUBSTRUCTURE
     1 GTP         1 TEMP              0 ****  ****    0 ROOT
