@<TRIPOS>MOLECULE
GTQ
   16    15     1     0     0
SMALL
bcc


@<TRIPOS>ATOM
      1 OAA         0.3970    0.7020    1.2530 o         1 GTQ     -0.548000
      2 OAB         1.0990   -0.9850   -0.0280 o         1 GTQ     -0.548000
      3 OAD         3.6640   -0.4150   -0.9350 oh        1 GTQ     -0.282000
      4 CAE         2.8100   -0.8090    4.7950 c2        1 GTQ     -0.338000
      5 CAF         4.6640    1.2940    0.3620 c1        1 GTQ      0.087000
      6 CAG         3.1570    0.1500    2.5620 c2        1 GTQ     -0.176000
      7 CAH         1.3000   -0.0620    0.8130 c2        1 GTQ      0.367000
      8 CAI         2.3730   -0.0340    3.7810 c2        1 GTQ      0.117000
      9 CAJ         3.7170    0.3530    0.2090 c2        1 GTQ     -0.161000
     10 CAK         2.7310    0.1490    1.2880 c2        1 GTQ     -0.100000
     11 HOAC        0.8670    0.9560    3.0990 ho        1 GTQ      0.274000
     12 HOAD        2.8090   -0.8940   -0.9430 ho        1 GTQ      0.274000
     13 HAE         3.7610   -1.3430    4.7330 ha        1 GTQ      0.109500
     14 HAF         2.2280   -0.9390    5.7120 ha        1 GTQ      0.109500
     15 HAG         4.2390    0.2610    2.7710 ha        1 GTQ      0.117000
     16 OAC         1.1980    0.6520    3.9670 oh        1 GTQ     -0.301000
@<TRIPOS>BOND
     1    1    7 1   
     2    2    7 1   
     3    3    9 1   
     4    3   12 1   
     5    4    8 1   
     6    4   13 1   
     7    4   14 1   
     8    5    9 1   
     9    6    8 1   
    10    6   10 1   
    11    6   15 1   
    12    7   10 1   
    13    8   16 1   
    14    9   10 1   
    15   11   16 1   
@<TRIPOS>SUBSTRUCTURE
     1 GTQ         1 TEMP              0 ****  ****    0 ROOT
