@<TRIPOS>MOLECULE
molecule
   16    16     1     0     0
SMALL
bcc


@<TRIPOS>ATOM
      1 OAA          0.0000     0.0000     0.0000 o          1 GTQ      -0.827300
      2 OAB          1.9550    -0.0100    -1.0520 o          1 GTQ      -0.827300
      3 OAD          4.1710    -0.0280     0.1090 oh         1 GTQ      -0.468100
      4 CAE          3.4770     0.0230     3.6790 ca         1 GTQ      -0.153000
      5 CAF          4.1720     0.0000     2.4860 ca         1 GTQ      -0.215000
      6 CAG          1.3890     0.0230     2.4900 ca         1 GTQ      -0.098000
      7 CAH          1.3470     0.0000     0.0000 c          1 GTQ       0.881200
      8 CAI          2.0880     0.0340     3.6820 ca         1 GTQ       0.040100
      9 CAJ          3.4860    -0.0060     1.2810 ca         1 GTQ       0.129100
     10 CAK          2.0840     0.0110     1.2770 ca         1 GTQ      -0.108600
     11 HOAC         1.2040    -0.8250     5.1230 ho         1 GTQ       0.398000
     12 HOAD         4.7960    -0.7340     0.1230 ho         1 GTQ       0.391000
     13 HAE          4.0180     0.0270     4.6180 ha         1 GTQ       0.112000
     14 HAF          5.2550    -0.0090     2.4920 ha         1 GTQ       0.111000
     15 HAG          0.3090     0.1050     2.4940 ha         1 GTQ       0.168000
     16 OAC          1.4130     0.0570     4.8630 oh         1 GTQ      -0.535100
@<TRIPOS>BOND
     1     7     1 1
     2     2     7 1
     3    16     8 1
     4    16    11 1
     5     9     3 1
     6     3    12 1
     7     8     4 ar
     8     4     5 ar
     9     4    13 1
    10     9     5 ar
    11     5    14 1
    12     6    10 ar
    13     6     8 ar
    14     6    15 1
    15     7    10 1
    16    10     9 ar
@<TRIPOS>SUBSTRUCTURE
     1 GTQ         1 TEMP              0 ****  ****    0 ROOT
