@<TRIPOS>MOLECULE
GTS
   38    37     1     0     0
SMALL
bcc


@<TRIPOS>ATOM
      1 N1           0.0000     0.0000     0.0000 nz         1 GTS       0.076400
      2 CA1          1.4680     0.0000     0.0000 c3         1 GTS      -0.206500
      3 C1           1.9710     0.0000     1.4200 c          1 GTS       0.968600
      4 O11          3.1430    -0.5810     1.7180 o          1 GTS      -0.837300
      5 O12          1.3180     0.5240     2.2910 o          1 GTS      -0.837300
      6 CB1          1.9790     1.2470    -0.7230 c3         1 GTS      -0.008400
      7 CG1          1.4680     1.2460    -2.1650 c3         1 GTS      -0.110400
      8 CD1          1.9720     2.4760    -2.8770 c          1 GTS       0.591100
      9 OE1          2.6680     3.2740    -2.2890 o          1 GTS      -0.622100
     10 N2           1.6460     2.6880    -4.1670 ns         1 GTS      -0.164900
     11 CA2          2.1340     3.8830    -4.8590 c3         1 GTS      -0.026300
     12 C2           1.1420     4.2930    -5.9150 c          1 GTS       0.542100
     13 O2           0.1260     3.6490    -6.0750 o          1 GTS      -0.738100
     14 CB2          3.4810     3.5770    -5.5150 c3         1 GTS      -0.069600
     15 SG2          4.6760     3.0850    -4.2420 s6         1 GTS       0.959800
     16 O1S          5.9440     2.8190    -5.0420 o          1 GTS      -0.659200
     17 O2S          5.0470     4.1820    -3.4200 o          1 GTS      -0.659200
     18 O3S          4.3690     1.8070    -3.7030 o          1 GTS      -0.659200
     19 N3           1.3830     5.3740    -6.6840 ns         1 GTS      -0.132900
     20 CA3          0.4180     5.7720    -7.7110 c3         1 GTS      -0.073000
     21 C3           0.9200     7.0010    -8.4230 c          1 GTS       0.972600
     22 O31          0.1940     7.5480    -9.4110 o          1 GTS      -0.896800
     23 O32          1.9760     7.4940    -8.1050 o          1 GTS      -0.896800
     24 HN11        -0.3340    -0.3850    -0.8610 hn         1 GTS       0.205800
     25 HN12        -0.3340     0.9390     0.0970 hn         1 GTS       0.205800
     26 HA1          1.8290    -0.8850    -0.5100 hx         1 GTS       0.086700
     27 HB11         3.0620     1.2450    -0.7240 hc         1 GTS       0.076700
     28 HB12         1.6200     2.1320    -0.2130 hc         1 GTS       0.076700
     29 HG11         0.3850     1.2480    -2.1640 hc         1 GTS       0.004700
     30 HG12         1.8280     0.3610    -2.6750 hc         1 GTS       0.004700
     31 HN2          1.0520     2.0410    -4.6460 hn         1 GTS       0.177500
     32 HA2          2.2550     4.6890    -4.1450 h1         1 GTS       0.070700
     33 HB21         3.3600     2.7710    -6.2280 h1         1 GTS       0.063200
     34 HB22         3.8420     4.4610    -6.0270 h1         1 GTS       0.063200
     35 HN3          2.2060     5.9220    -6.5310 hn         1 GTS       0.208500
     36 HA31        -0.5360     5.9900    -7.2460 h1         1 GTS       0.018200
     37 HA32         0.2960     4.9660    -8.4250 h1         1 GTS       0.018200
     38 H13         -0.3340    -0.5450     0.7700 hn         1 GTS       0.205800
@<TRIPOS>BOND
     1     1     2 1   
     2     1    24 1   
     3     1    25 1   
     4     1    38 1   
     5     2     3 1   
     6     2     6 1   
     7     2    26 1   
     8     3     4 1   
     9     3     5 1   
    10     6     7 1   
    11     6    27 1   
    12     6    28 1   
    13     7     8 1   
    14     7    29 1   
    15     7    30 1   
    16     8     9 2   
    17     8    10 1   
    18    10    11 1   
    19    10    31 1   
    20    11    12 1   
    21    11    14 1   
    22    11    32 1   
    23    12    13 2   
    24    12    19 1   
    25    14    15 1   
    26    14    33 1   
    27    14    34 1   
    28    15    16 1   
    29    15    17 1   
    30    15    18 1   
    31    19    20 1   
    32    19    35 1   
    33    20    21 1   
    34    20    36 1   
    35    20    37 1   
    36    21    22 1   
    37    21    23 1   
@<TRIPOS>SUBSTRUCTURE
     1 GTS         1 TEMP              0 ****  ****    0 ROOT
