@<TRIPOS>MOLECULE
molecule
   38    37     1     0     0
SMALL
bcc


@<TRIPOS>ATOM
      1 N1           0.0000     0.0000     0.0000 nz         1 GTS      -0.791600
      2 CA1          1.4680     0.0000     0.0000 c3         1 GTS      -0.023500
      3 C1           1.9710     0.0000     1.4200 c          1 GTS       0.875600
      4 O11          3.1430    -0.5810     1.7180 o          1 GTS      -0.792300
      5 O12          1.3180     0.5240     2.2910 o          1 GTS      -0.792300
      6 CB1          1.9790     1.2470    -0.7230 c3         1 GTS      -0.071400
      7 CG1          1.4680     1.2460    -2.1650 c3         1 GTS      -0.166400
      8 CD1          1.9720     2.4760    -2.8770 c          1 GTS       0.680100
      9 OE1          2.6680     3.2740    -2.2890 o          1 GTS      -0.596100
     10 N2           1.6460     2.6880    -4.1670 ns         1 GTS      -0.564900
     11 CA2          2.1340     3.8830    -4.8590 c3         1 GTS       0.059700
     12 C2           1.1420     4.2930    -5.9150 c          1 GTS       0.645100
     13 O2           0.1260     3.6490    -6.0750 o          1 GTS      -0.688100
     14 CB2          3.4810     3.5770    -5.5150 c3         1 GTS      -0.268600
     15 SG2          4.6760     3.0850    -4.2420 s6         1 GTS       1.270800
     16 O1S          5.9440     2.8190    -5.0420 o          1 GTS      -0.710533
     17 O2S          5.0470     4.1820    -3.4200 o          1 GTS      -0.710533
     18 O3S          4.3690     1.8070    -3.7030 o          1 GTS      -0.710533
     19 N3           1.3830     5.3740    -6.6840 ns         1 GTS      -0.540900
     20 CA3          0.4180     5.7720    -7.7110 c3         1 GTS      -0.001000
     21 C3           0.9200     7.0010    -8.4230 c          1 GTS       0.883600
     22 O31          0.1940     7.5480    -9.4110 o          1 GTS      -0.850300
     23 O32          1.9760     7.4940    -8.1050 o          1 GTS      -0.850300
     24 HN11        -0.3340    -0.3850    -0.8610 hn         1 GTS       0.432467
     25 HN12        -0.3340     0.9390     0.0970 hn         1 GTS       0.432467
     26 HA1          1.8290    -0.8850    -0.5100 hx         1 GTS       0.102700
     27 HB11         3.0620     1.2450    -0.7240 hc         1 GTS       0.109200
     28 HB12         1.6200     2.1320    -0.2130 hc         1 GTS       0.109200
     29 HG11         0.3850     1.2480    -2.1640 hc         1 GTS       0.036700
     30 HG12         1.8280     0.3610    -2.6750 hc         1 GTS       0.036700
     31 HN2          1.0520     2.0410    -4.6460 hn         1 GTS       0.320500
     32 HA2          2.2550     4.6890    -4.1450 h1         1 GTS       0.095700
     33 HB21         3.3600     2.7710    -6.2280 h1         1 GTS       0.090200
     34 HB22         3.8420     4.4610    -6.0270 h1         1 GTS       0.090200
     35 HN3          2.2060     5.9220    -6.5310 hn         1 GTS       0.344500
     36 HA31        -0.5360     5.9900    -7.2460 h1         1 GTS       0.039200
     37 HA32         0.2960     4.9660    -8.4250 h1         1 GTS       0.039200
     38 H13         -0.3340    -0.5450     0.7700 hn         1 GTS       0.432467
@<TRIPOS>BOND
     1     1     2 1
     2     1    24 1
     3     1    25 1
     4     2     3 1
     5     2     6 1
     6     2    26 1
     7     3     4 1
     8     3     5 1
     9     6     7 1
    10     6    27 1
    11     6    28 1
    12     7     8 1
    13     7    29 1
    14     7    30 1
    15     8     9 2
    16     8    10 1
    17    10    11 1
    18    10    31 1
    19    11    12 1
    20    11    14 1
    21    11    32 1
    22    12    13 2
    23    12    19 1
    24    14    15 1
    25    14    33 1
    26    14    34 1
    27    15    16 1
    28    15    17 1
    29    15    18 1
    30    19    20 1
    31    19    35 1
    32    20    21 1
    33    20    36 1
    34    20    37 1
    35    21    22 1
    36    21    23 1
    37    38     1 1
@<TRIPOS>SUBSTRUCTURE
     1 GTS         1 TEMP              0 ****  ****    0 ROOT
