@<TRIPOS>MOLECULE
molecule
   36    35     1     0     0
SMALL
bcc


@<TRIPOS>ATOM
      1 N1           0.0000     0.0000     0.0000 nz         1 GTT      -0.791600
      2 CA1          1.4690     0.0000     0.0000 c3         1 GTT      -0.022500
      3 C1           1.9720     0.0000     1.4200 c          1 GTT       0.873600
      4 O11          1.2450     0.3580     2.3180 o          1 GTT      -0.781800
      5 O12          3.2250    -0.3970     1.6890 o          1 GTT      -0.781800
      6 CB1          1.9790     1.2500    -0.7220 c3         1 GTT      -0.073400
      7 CG1          1.5740     1.1870    -2.1960 c3         1 GTT      -0.176400
      8 CD1          2.0750     2.4180    -2.9060 c          1 GTT       0.655100
      9 OE1          2.6960     3.2610    -2.2940 o          1 GTT      -0.573100
     10 N2           1.8350     2.5820    -4.2220 ns         1 GTT      -0.562900
     11 CA2          2.3230     3.7780    -4.9130 c3         1 GTT       0.054700
     12 C2           1.4640     4.0450    -6.1220 c          1 GTT       0.634100
     13 O2           0.5350     3.3090    -6.3810 o          1 GTT      -0.652100
     14 CB2          3.7700     3.5570    -5.3550 c3         1 GTT       0.019700
     15 SG2          4.8050     3.2340    -3.8990 sh         1 GTT      -0.384900
     16 N3           1.7270     5.1020    -6.9160 ns         1 GTT      -0.534900
     17 CA3          0.8920     5.3620    -8.0910 c3         1 GTT      -0.007000
     18 C3           1.3940     6.5930    -8.8020 c          1 GTT       0.883600
     19 O31          2.3510     7.1920    -8.3700 o          1 GTT      -0.839300
     20 O32          0.7780     7.0240    -9.9130 o          1 GTT      -0.839300
     21 HN11        -0.3340    -0.2390    -0.9130 hn         1 GTT       0.437800
     22 HN12        -0.3340     0.9100     0.2500 hn         1 GTT       0.437800
     23 HN13        -0.3340    -0.6710     0.6630 hn         1 GTT       0.437800
     24 HA1          1.8300    -0.8840    -0.5110 hx         1 GTT       0.099700
     25 HB11         3.0580     1.2960    -0.6460 hc         1 GTT       0.102700
     26 HB12         1.5460     2.1320    -0.2660 hc         1 GTT       0.102700
     27 HG11         2.0060     0.3050    -2.6520 hc         1 GTT       0.044200
     28 HG12         0.4940     1.1410    -2.2720 hc         1 GTT       0.044200
     29 HN2          1.3220     1.8870    -4.7270 hn         1 GTT       0.330500
     30 HA2          2.2760     4.6270    -4.2420 h1         1 GTT       0.103700
     31 HB21         3.8170     2.7080    -6.0270 h1         1 GTT       0.070700
     32 HB22         4.1310     4.4420    -5.8660 h1         1 GTT       0.070700
     33 HSG          6.0830     3.3860    -4.2230 hs         1 GTT       0.183800
     34 HN3          2.4740     5.7280    -6.6850 hn         1 GTT       0.338500
     35 HA31        -0.1330     5.5190    -7.7780 h1         1 GTT       0.048700
     36 HA32         0.9390     4.5130    -8.7620 h1         1 GTT       0.048700
@<TRIPOS>BOND
     1     1     2 1
     2     1    21 1
     3     1    22 1
     4     1    23 1
     5     2     3 1
     6     2     6 1
     7     2    24 1
     8     3     4 1
     9     3     5 1
    10     6     7 1
    11     6    25 1
    12     6    26 1
    13     7     8 1
    14     7    27 1
    15     7    28 1
    16     8     9 2
    17     8    10 1
    18    10    11 1
    19    10    29 1
    20    11    12 1
    21    11    14 1
    22    11    30 1
    23    12    13 2
    24    12    16 1
    25    14    15 1
    26    14    31 1
    27    14    32 1
    28    15    33 1
    29    16    17 1
    30    16    34 1
    31    17    18 1
    32    17    35 1
    33    17    36 1
    34    18    19 1
    35    18    20 1
@<TRIPOS>SUBSTRUCTURE
     1 GTT         1 TEMP              0 ****  ****    0 ROOT
