@<TRIPOS>MOLECULE
molecule
   94    96     1     0     0
SMALL
bcc


@<TRIPOS>ATOM
      1 C4           0.0000     0.0000     0.0000 c3         1 GTW      -0.118400
      2 C6           3.6260     0.0000     1.5820 cc         1 GTW      -0.187000
      3 C7           5.0700    -0.0010     1.8400 c          1 GTW       0.656700
      4 C10          8.0440     0.7750    -0.1140 c          1 GTW      -0.454900
      5 C13         11.3570     2.0290    -0.9640 c          1 GTW      -0.486900
      6 C15         13.5850     2.1940    -1.9360 c3         1 GTW      -0.919300
      7 C17         13.8140     0.3840    -3.6150 ca         1 GTW      -0.098300
      8 C20         13.1060    -2.2140    -4.2410 ca         1 GTW      -0.203300
      9 C21         12.7240    -3.6250    -4.6080 c3         1 GTW       0.153100
     10 C24         14.6130    -0.6670    -3.2080 ca         1 GTW      -0.131500
     11 C28         14.9000     3.8870     0.0920 c3         1 GTW       0.219700
     12 C3           1.3120     0.0000     0.7410 cd         1 GTW       0.450700
     13 S5           2.8530     0.0000     0.0000 ss         1 GTW      -0.140300
     14 N2           1.4330    -0.0090     2.0300 nc         1 GTW      -0.697000
     15 C1           2.6460    -0.0060     2.5210 cc         1 GTW       0.437200
     16 O44          5.4840    -0.0010     2.9840 o          1 GTW      -0.657100
     17 N8           5.9380     0.0000     0.8090 ns         1 GTW      -0.617900
     18 C9           7.3760     0.1100     1.0630 c3         1 GTW       0.046700
     19 C40          7.9670    -1.2860     1.2630 c3         1 GTW      -0.362400
     20 C41          9.4490    -1.1650     1.6290 c3         1 GTW      -0.402700
     21 C42          9.5830    -0.4660     2.9840 c3         1 GTW      -0.123600
     22 C43         10.0690    -2.5620     1.7120 c3         1 GTW      -0.123600
     23 N11          9.2510     1.3570     0.0360 ns         1 GTW       0.705100
     24 C12          9.8550     2.0870    -1.0800 c3         1 GTW      -0.857300
     25 C32          9.3970     3.5460    -1.0430 c3         1 GTW      -0.011400
     26 C33          9.9630     4.2900    -2.2540 c3         1 GTW      -0.089700
     27 C38          9.3370     3.7310    -3.5340 c3         1 GTW      -0.029400
     28 C37          9.9030     4.4750    -4.7450 c3         1 GTW      -0.372900
     29 C36          9.5780     5.9650    -4.6270 c3         1 GTW      -0.359400
     30 C35         10.2050     6.5230    -3.3470 c3         1 GTW      -0.372900
     31 C34          9.6390     5.7800    -2.1350 c3         1 GTW      -0.029400
     32 N14         12.1250     2.2110    -2.0560 ns         1 GTW       0.698100
     33 C25         14.0800     3.5850    -1.5350 c3         1 GTW       0.093600
     34 S27         14.7730     2.1960     0.7330 s6         1 GTW       0.023000
     35 O30         15.9200     1.8630     1.5850 o          1 GTW      -0.511800
     36 O29         14.4940     0.8990     0.1120 o          1 GTW      -0.511800
     37 C16         14.2030     1.8000    -3.2790 c3         1 GTW      -0.201100
     38 C23         14.2600    -1.9670    -3.5210 ca         1 GTW      -0.103500
     39 N22         13.7680    -4.2120    -5.4210 nz         1 GTW      -0.806600
     40 C19         12.3040    -1.1640    -4.6430 ca         1 GTW      -0.103500
     41 C18         12.6600     0.1350    -4.3350 ca         1 GTW      -0.131500
     42 H1          -0.3000    -1.0210    -0.2030 hc         1 GTW       0.061367
     43 H2          -0.7570     0.4850     0.6050 hc         1 GTW       0.061367
     44 H3           0.1130     0.5350    -0.9350 hc         1 GTW       0.061367
     45 H4          13.8770     1.4750    -1.1800 h1         1 GTW       0.183700
     46 H5          12.5960    -4.2110    -3.7060 hx         1 GTW       0.111200
     47 H6          11.7950    -3.6150    -5.1660 hx         1 GTW       0.111200
     48 H7          15.2300    -0.5820    -2.3220 ha         1 GTW       0.182000
     49 H8          15.3870     4.4010    -0.0320 h1         1 GTW       0.081200
     50 H9          16.1250     3.1410    -1.0290 h1         1 GTW       0.081200
     51 H10         15.7610     4.3760     0.5320 h1         1 GTW       0.098033
     52 H11         14.0030     4.4380     0.3470 h1         1 GTW       0.098033
     53 H12         15.0120     3.8580    -0.9850 h1         1 GTW       0.098033
     54 H13          2.7940     0.0660     3.5920 h4         1 GTW       0.062100
     55 H14          6.9160     0.1250     0.9780 hn         1 GTW       0.417500
     56 H15          7.5410     0.7040     1.9540 h1         1 GTW       0.089700
     57 H16          8.9650    -1.2010     1.6760 hc         1 GTW       0.184200
     58 H17          8.0140    -1.7990     0.3100 hc         1 GTW       0.184200
     59 H18          9.5480    -0.6010     2.5480 hc         1 GTW       0.219700
     60 H19         10.6310    -0.3050     3.2050 hc         1 GTW       0.087200
     61 H20          9.1420    -1.0860     3.7550 hc         1 GTW       0.087200
     62 H21          9.0700     0.4880     2.9500 hc         1 GTW       0.087200
     63 H22          9.3050    -3.2810     1.9820 hc         1 GTW       0.087200
     64 H23         10.4910    -2.8270     0.7510 hc         1 GTW       0.087200
     65 H24         10.8500    -2.5660     2.4630 hc         1 GTW       0.087200
     66 H25          9.4890     1.7980     0.9020 hn         1 GTW      -0.439500
     67 H26          9.5480     1.6360    -2.0150 h1         1 GTW       0.118700
     68 H27          8.3180     3.5840    -0.9590 hc         1 GTW       0.060700
     69 H28          9.8430     4.0430    -0.1890 hc         1 GTW       0.060700
     70 H29         11.0340     4.1340    -2.3040 hc         1 GTW       0.070700
     71 H30          9.4670     2.6560    -3.5460 hc         1 GTW       0.055700
     72 H31          8.2780     3.9620    -3.5360 hc         1 GTW       0.055700
     73 H32          9.5550     5.5000    -4.7210 hc         1 GTW       0.158700
     74 H33          9.5430     3.9970    -5.6480 hc         1 GTW       0.158700
     75 H34          9.8800     6.4630    -5.5400 hc         1 GTW       0.157200
     76 H35         10.1330     6.3790    -3.7940 hc         1 GTW       0.157200
     77 H36          9.7030     6.0860    -2.4920 hc         1 GTW       0.158700
     78 H37         10.0690     7.5980    -3.3310 hc         1 GTW       0.158700
     79 H38          9.9780     6.1360    -1.1700 hc         1 GTW       0.055700
     80 H39          8.5660     5.9120    -2.2080 hc         1 GTW       0.055700
     81 H40         11.7870     2.7670    -2.8170 hn         1 GTW      -0.466500
     82 H41         13.2660     4.1440    -1.0910 hc         1 GTW       0.066200
     83 H42         14.4400     4.1070    -2.4140 hc         1 GTW       0.066200
     84 H43         13.6960     0.9250    -3.6670 hc         1 GTW       0.174700
     85 H44         15.2540     1.5760    -3.1410 hc         1 GTW       0.174700
     86 H45         14.7940    -2.7750    -3.0360 ha         1 GTW       0.146000
     87 H46         14.5540    -3.5930    -5.4530 hn         1 GTW       0.457800
     88 H47         13.4240    -4.3640    -6.3480 hn         1 GTW       0.457800
     89 H49         11.5000    -1.3360    -5.3490 ha         1 GTW       0.146000
     90 H50         11.7640     0.7100    -4.1300 ha         1 GTW       0.182000
     91 O31         12.0330     2.3550    -1.8770 o          1 GTW       0.919900
     92 H223        14.0950    -5.0540    -4.9880 hn         1 GTW       0.457800
     93 O39          9.1750     1.1160    -0.0370 o          1 GTW       0.850900
     94 C26         15.2200     3.4480    -0.5180 c3         1 GTW       0.146400
@<TRIPOS>BOND
     1    14    15 1
     2    14    12 2
     3    15     2 2
     4     1    12 1
     5    12    13 1
     6    21    20 1
     7     2    13 1
     8     2     3 1
     9     3    16 2
    10     3    17 1
    11    17    18 1
    12    20    19 1
    13    20    22 1
    14    19    18 1
    15    18     4 1
    16     4    93 2
    17     4    23 1
    18    23    24 1
    19    30    29 1
    20    30    31 1
    21    28    29 1
    22    28    27 1
    23    26    31 1
    24    26    27 1
    25    26    25 1
    26    24    25 1
    27    24     5 1
    28    91     5 2
    29     5    32 1
    30    39     9 1
    31     9     8 1
    32    38     8 ar
    33    38    10 ar
    34     8    40 ar
    35    10     7 ar
    36    32     6 1
    37    40    41 ar
    38     6    37 1
    39     6    33 1
    40     7    41 ar
    41     7    37 1
    42    11    34 1
    43    36    34 2
    44    33    94 1
    45    34    94 1
    46    34    35 2
    47     1    42 1
    48     1    43 1
    49     1    44 1
    50     6    45 1
    51     9    46 1
    52     9    47 1
    53    10    48 1
    54    94    49 1
    55    94    50 1
    56    11    51 1
    57    11    52 1
    58    11    53 1
    59    15    54 1
    60    17    55 1
    61    18    56 1
    62    19    57 1
    63    19    58 1
    64    20    59 1
    65    21    60 1
    66    21    61 1
    67    21    62 1
    68    22    63 1
    69    22    64 1
    70    22    65 1
    71    23    66 1
    72    24    67 1
    73    25    68 1
    74    25    69 1
    75    26    70 1
    76    27    71 1
    77    27    72 1
    78    28    73 1
    79    28    74 1
    80    29    75 1
    81    29    76 1
    82    30    77 1
    83    30    78 1
    84    31    79 1
    85    31    80 1
    86    32    81 1
    87    33    82 1
    88    33    83 1
    89    37    84 1
    90    37    85 1
    91    38    86 1
    92    39    87 1
    93    39    88 1
    94    40    89 1
    95    41    90 1
    96    92    39 1
@<TRIPOS>SUBSTRUCTURE
     1 GTW         1 TEMP              0 ****  ****    0 ROOT
