@<TRIPOS>MOLECULE
GTX
   54    53     1     0     0
SMALL
bcc


@<TRIPOS>ATOM
      1 N1           0.0000     0.0000     0.0000 nz         1 GTX       0.080400
      2 CA1          1.4700     0.0000     0.0000 c3         1 GTX      -0.205500
      3 C1           1.9720     0.0000     1.4210 c          1 GTX       0.963600
      4 O11          1.2470     0.3580     2.3180 o          1 GTX      -0.826300
      5 O12          3.2260    -0.3980     1.6890 o          1 GTX      -0.826300
      6 CB1          1.9790     1.2490    -0.7220 c3         1 GTX      -0.008400
      7 CG1          1.5740     1.1870    -2.1950 c3         1 GTX      -0.118400
      8 CD1          2.0760     2.4180    -2.9060 c          1 GTX       0.580100
      9 OE1          2.6970     3.2610    -2.2940 o          1 GTX      -0.627100
     10 N2           1.8350     2.5810    -4.2220 ns         1 GTX      -0.145900
     11 CA2          2.3240     3.7780    -4.9120 c3         1 GTX      -0.038300
     12 C2           1.3310     4.8980    -4.7400 c          1 GTX       0.530100
     13 O2           0.3150     4.7160    -4.1010 o          1 GTX      -0.695100
     14 CB2          2.4930     3.4730    -6.4030 c3         1 GTX       0.071700
     15 SG2          3.6880     2.1240    -6.6120 ss         1 GTX      -0.413200
     16 C1S          3.6890     1.9810    -8.4200 c3         1 GTX       0.080700
     17 C2S          4.6540     0.8730    -8.8430 c3         1 GTX      -0.010400
     18 C3S          4.6560     0.7530   -10.3680 c3         1 GTX      -0.030400
     19 C4S          5.6200    -0.3570   -10.7920 c3         1 GTX      -0.028400
     20 C5S          5.6220    -0.4770   -12.3180 c3         1 GTX      -0.028400
     21 C6S          6.5870    -1.5860   -12.7410 c3         1 GTX       0.006900
     22 N3           1.5720     6.1040    -5.2930 ns         1 GTX      -0.126900
     23 CA3          0.6070     7.1920    -5.1240 c3         1 GTX      -0.078000
     24 C3           1.1090     8.4230    -5.8340 c          1 GTX       0.971600
     25 O31          2.1640     8.3930    -6.4220 o          1 GTX      -0.888300
     26 O32          0.3830     9.5520    -5.8160 o          1 GTX      -0.888300
     27 HN11        -0.3340    -0.2420    -0.9120 hn         1 GTX       0.210133
     28 HN12        -0.3340     0.9110     0.2470 hn         1 GTX       0.210133
     29 HN13        -0.3340    -0.6690     0.6650 hn         1 GTX       0.210133
     30 HA1          1.8310    -0.8850    -0.5110 hx         1 GTX       0.079700
     31 HB11         3.0590     1.2950    -0.6460 hc         1 GTX       0.071200
     32 HB12         1.5470     2.1310    -0.2650 hc         1 GTX       0.071200
     33 HG11         0.4950     1.1410    -2.2710 hc         1 GTX       0.012700
     34 HG12         2.0060     0.3050    -2.6520 hc         1 GTX       0.012700
     35 HN2          1.2990     1.8990    -4.7210 hn         1 GTX       0.169500
     36 HA2          3.2780     4.0730    -4.4930 h1         1 GTX       0.082700
     37 HB21         2.8540     4.3570    -6.9140 h1         1 GTX       0.051700
     38 HB22         1.5390     3.1780    -6.8220 h1         1 GTX       0.051700
     39 HS11         4.0060     2.9210    -8.8560 h1         1 GTX       0.037200
     40 HS12         2.6900     1.7420    -8.7640 h1         1 GTX       0.037200
     41 HS21         4.3380    -0.0670    -8.4080 hc         1 GTX       0.026700
     42 HS22         5.6530     1.1120    -8.4990 hc         1 GTX       0.026700
     43 HS31         4.9730     1.6930   -10.8040 hc         1 GTX       0.016200
     44 HS32         3.6570     0.5140   -10.7130 hc         1 GTX       0.016200
     45 HS41         6.6190    -0.1190   -10.4470 hc         1 GTX       0.015700
     46 HS42         5.3030    -1.2970   -10.3560 hc         1 GTX       0.015700
     47 HS51         4.6230    -0.7160   -12.6620 hc         1 GTX       0.012200
     48 HS52         5.9390     0.4630   -12.7530 hc         1 GTX       0.012200
     49 HS61         6.2670    -2.5270   -12.3110 hc         1 GTX      -0.000967
     50 HS62         7.5850    -1.3490   -12.3910 hc         1 GTX      -0.000967
     51 HS63         6.5930    -1.6660   -13.8210 hc         1 GTX      -0.000967
     52 HN3          2.4300     6.2670    -5.7810 hn         1 GTX       0.196500
     53 HA31        -0.3480     6.8970    -5.5440 h1         1 GTX       0.027200
     54 HA32         0.4860     7.4080    -4.0700 h1         1 GTX       0.027200
@<TRIPOS>BOND
     1     1     2 1   
     2     1    27 1   
     3     1    28 1   
     4     1    29 1   
     5     2     3 1   
     6     2     6 1   
     7     2    30 1   
     8     3     4 1   
     9     3     5 1   
    10     6     7 1   
    11     6    31 1   
    12     6    32 1   
    13     7     8 1   
    14     7    33 1   
    15     7    34 1   
    16     8     9 2   
    17     8    10 1   
    18    10    11 1   
    19    10    35 1   
    20    11    12 1   
    21    11    14 1   
    22    11    36 1   
    23    12    13 2   
    24    12    22 1   
    25    14    15 1   
    26    14    37 1   
    27    14    38 1   
    28    15    16 1   
    29    16    17 1   
    30    16    39 1   
    31    16    40 1   
    32    17    18 1   
    33    17    41 1   
    34    17    42 1   
    35    18    19 1   
    36    18    43 1   
    37    18    44 1   
    38    19    20 1   
    39    19    45 1   
    40    19    46 1   
    41    20    21 1   
    42    20    47 1   
    43    20    48 1   
    44    21    49 1   
    45    21    50 1   
    46    21    51 1   
    47    22    23 1   
    48    22    52 1   
    49    23    24 1   
    50    23    53 1   
    51    23    54 1   
    52    24    25 1   
    53    24    26 1   
@<TRIPOS>SUBSTRUCTURE
     1 GTX         1 TEMP              0 ****  ****    0 ROOT
