@<TRIPOS>MOLECULE
molecule
   60    59     1     0     0
SMALL
bcc


@<TRIPOS>ATOM
      1 N1           0.0000     0.0000     0.0000 nz         1 GTY      -0.792600
      2 CA1          1.4700     0.0000     0.0000 c3         1 GTY      -0.021500
      3 C1           1.9710     0.0000     1.4210 c          1 GTY       0.873600
      4 O11          3.2250    -0.3970     1.6900 o          1 GTY      -0.781800
      5 O12          1.2450     0.3570     2.3190 o          1 GTY      -0.781800
      6 CB1          1.9790     1.2510    -0.7200 c3         1 GTY      -0.073400
      7 CG1          1.5750     1.1890    -2.1950 c3         1 GTY      -0.177400
      8 CD1          2.0770     2.4200    -2.9040 c          1 GTY       0.670100
      9 OE1          2.6970     3.2630    -2.2900 o          1 GTY      -0.587100
     10 N2           1.8380     2.5850    -4.2200 ns         1 GTY      -0.554900
     11 CA2          2.3260     3.7820    -4.9100 c3         1 GTY       0.053700
     12 C2           1.3320     4.9020    -4.7360 c          1 GTY       0.632100
     13 O2           0.3170     4.7180    -4.0990 o          1 GTY      -0.639100
     14 CB2          2.4970     3.4770    -6.4000 c3         1 GTY       0.005700
     15 SG2          3.6910     2.1300    -6.6090 ss         1 GTY      -0.361200
     16 C1S          3.6950     1.9890    -8.4170 c3         1 GTY       0.012700
     17 C2S          4.6610     0.8800    -8.8400 c3         1 GTY      -0.068400
     18 C3S          4.6620     0.7610   -10.3660 c3         1 GTY      -0.081400
     19 C4S          5.6290    -0.3480   -10.7890 c3         1 GTY      -0.081400
     20 C5S          5.6310    -0.4660   -12.3150 c3         1 GTY      -0.082400
     21 C6S          6.5960    -1.5750   -12.7380 c3         1 GTY      -0.081400
     22 C7S          6.5990    -1.6940   -14.2630 c3         1 GTY      -0.084400
     23 C8S          7.5650    -2.8020   -14.6870 c3         1 GTY      -0.092100
     24 N3           1.5720     6.1070    -5.2890 ns         1 GTY      -0.541900
     25 CA3          0.6070     7.1960    -5.1210 c3         1 GTY      -0.005000
     26 C3           1.1090     8.4270    -5.8300 c          1 GTY       0.883600
     27 O31          0.3830     9.5560    -5.8110 o          1 GTY      -0.842800
     28 O32          2.1650     8.3980    -6.4160 o          1 GTY      -0.842800
     29 HN11        -0.3340     0.9340     0.1320 hn         1 GTY       0.438133
     30 HN12        -0.3340    -0.5820     0.7430 hn         1 GTY       0.438133
     31 HA1          1.8310    -0.8840    -0.5110 hx         1 GTY       0.096700
     32 HB11         1.5470     2.1320    -0.2630 hc         1 GTY       0.104200
     33 HB12         3.0590     1.2970    -0.6430 hc         1 GTY       0.104200
     34 HG11         2.0080     0.3070    -2.6510 hc         1 GTY       0.043700
     35 HG12         0.4950     1.1430    -2.2710 hc         1 GTY       0.043700
     36 HN2          1.3150     1.8960    -4.7230 hn         1 GTY       0.313500
     37 HA2          3.2800     4.0770    -4.4890 h1         1 GTY       0.107700
     38 HB21         2.8580     4.3620    -6.9100 h1         1 GTY       0.076700
     39 HB22         1.5430     3.1830    -6.8200 h1         1 GTY       0.076700
     40 H1S1         4.0110     2.9290    -8.8530 h1         1 GTY       0.059700
     41 H1S2         2.6960     1.7490    -8.7630 h1         1 GTY       0.059700
     42 H2S1         5.6590     1.1200    -8.4950 hc         1 GTY       0.052700
     43 H2S2         4.3440    -0.0600    -8.4050 hc         1 GTY       0.052700
     44 H3S1         4.9790     1.7010   -10.8010 hc         1 GTY       0.043200
     45 H3S2         3.6640     0.5210   -10.7110 hc         1 GTY       0.043200
     46 H4S1         6.6270    -0.1080   -10.4430 hc         1 GTY       0.041700
     47 H4S2         5.3120    -1.2880   -10.3540 hc         1 GTY       0.041700
     48 H5S1         5.9480     0.4740   -12.7490 hc         1 GTY       0.041200
     49 H5S2         4.6330    -0.7060   -12.6600 hc         1 GTY       0.041200
     50 H6S1         7.5950    -1.3350   -12.3930 hc         1 GTY       0.040700
     51 H6S2         6.2800    -2.5150   -12.3030 hc         1 GTY       0.040700
     52 H7S1         5.6010    -1.9340   -14.6090 hc         1 GTY       0.039700
     53 H7S2         6.9150    -0.7540   -14.6990 hc         1 GTY       0.039700
     54 H8S1         7.5670    -2.8860   -15.7670 hc         1 GTY       0.031367
     55 H8S2         8.5640    -2.5620   -14.3420 hc         1 GTY       0.031367
     56 H8S3         7.2490    -3.7420   -14.2510 hc         1 GTY       0.031367
     57 HN3          2.4260     6.2680    -5.7850 hn         1 GTY       0.333500
     58 HA31        -0.3470     6.9010    -5.5410 h1         1 GTY       0.048200
     59 HA32         0.4850     7.4110    -4.0660 h1         1 GTY       0.048200
     60 H13         -0.3340    -0.3420    -0.8790 hn         1 GTY       0.438133
@<TRIPOS>BOND
     1     1     2 1
     2     1    29 1
     3     1    30 1
     4     2     3 1
     5     2     6 1
     6     2    31 1
     7     3     4 1
     8     3     5 1
     9     6     7 1
    10     6    32 1
    11     6    33 1
    12     7     8 1
    13     7    34 1
    14     7    35 1
    15     8     9 2
    16     8    10 1
    17    10    11 1
    18    10    36 1
    19    11    12 1
    20    11    14 1
    21    11    37 1
    22    12    13 2
    23    12    24 1
    24    14    15 1
    25    14    38 1
    26    14    39 1
    27    15    16 1
    28    16    17 1
    29    16    40 1
    30    16    41 1
    31    17    18 1
    32    17    42 1
    33    17    43 1
    34    18    19 1
    35    18    44 1
    36    18    45 1
    37    19    20 1
    38    19    46 1
    39    19    47 1
    40    20    21 1
    41    20    48 1
    42    20    49 1
    43    21    22 1
    44    21    50 1
    45    21    51 1
    46    22    23 1
    47    22    52 1
    48    22    53 1
    49    23    54 1
    50    23    55 1
    51    23    56 1
    52    24    25 1
    53    24    57 1
    54    25    26 1
    55    25    58 1
    56    25    59 1
    57    26    27 1
    58    26    28 1
    59    60     1 1
@<TRIPOS>SUBSTRUCTURE
     1 GTY         1 TEMP              0 ****  ****    0 ROOT
