@<TRIPOS>MOLECULE
molecule
   24    25     1     0     0
SMALL
bcc


@<TRIPOS>ATOM
      1 C1           0.0000     0.0000     0.0000 cc         1 GTZ       0.328800
      2 C2           1.5070     0.0000     0.0000 c3         1 GTZ       0.137800
      3 C3           1.9860     0.0000     1.4580 c3         1 GTZ       0.119100
      4 C4           1.2300     1.0820     2.2350 c3         1 GTZ       0.118100
      5 C5          -0.2400     0.6740     2.3870 c3         1 GTZ       0.069000
      6 C6          -1.0440     1.8500     2.9440 c3         1 GTZ       0.135400
      7 N1          -0.8120    -0.2760    -0.9810 nd         1 GTZ      -0.364000
      8 O2           1.9890    -1.1690    -0.6670 oh         1 GTZ      -0.583800
      9 O3           3.3880     0.2740     1.4990 oh         1 GTZ      -0.594800
     10 O4           1.3100     2.3210     1.5270 oh         1 GTZ      -0.590800
     11 N5          -0.7640     0.2960     1.0720 na         1 GTZ      -0.003400
     12 O6          -2.3870     1.4340     3.1930 oh         1 GTZ      -0.585800
     13 NA          -1.9900     0.1910     0.7040 nc         1 GTZ      -0.191800
     14 NB          -2.0190    -0.1540    -0.5390 nd         1 GTZ      -0.049000
     15 H2           1.8700     0.8890    -0.5020 h1         1 GTZ       0.088700
     16 H3           1.7880    -0.9680     1.9020 h1         1 GTZ       0.063700
     17 H4           1.6740     1.1930     3.2170 h1         1 GTZ       0.061700
     18 H5          -0.3110    -0.1710     3.0610 h1         1 GTZ       0.092700
     19 H61         -0.5930     2.1900     3.8690 h1         1 GTZ       0.043700
     20 H62         -1.0440     2.6600     2.2240 h1         1 GTZ       0.043700
     21 HO2          2.3930    -0.9220    -1.4810 ho         1 GTZ       0.421000
     22 HO3          3.8280    -0.4120     1.9730 ho         1 GTZ       0.415000
     23 HO4          1.9070     2.9000     1.9720 ho         1 GTZ       0.419000
     24 HO6         -2.8030     2.0470     3.7770 ho         1 GTZ       0.409000
@<TRIPOS>BOND
     1     1     2 1
     2     1     7 2
     3     1    11 1
     4     2     3 1
     5     2     8 1
     6     2    15 1
     7     3     4 1
     8     3     9 1
     9     3    16 1
    10     4     5 1
    11     4    10 1
    12     4    17 1
    13     5     6 1
    14     5    11 1
    15     5    18 1
    16     6    12 1
    17     6    19 1
    18     6    20 1
    19     7    14 1
    20     8    21 1
    21     9    22 1
    22    10    23 1
    23    11    13 1
    24    12    24 1
    25    13    14 2
@<TRIPOS>SUBSTRUCTURE
     1 GTZ         1 TEMP              0 ****  ****    0 ROOT
