@<TRIPOS>MOLECULE
GTZ
   24    25     1     0     0
SMALL
bcc


@<TRIPOS>ATOM
      1 C1          0.0630    0.0320   -0.0040 cc        1 GTZ      0.349800
      2 C2          1.5540    0.0390    0.0860 c3        1 GTZ      0.095800
      3 C3          1.9880    0.0070    1.5680 c3        1 GTZ      0.107100
      4 C4          1.2130    1.0420    2.4030 c3        1 GTZ      0.138100
      5 C5         -0.3090    0.7600    2.3990 c3        1 GTZ      0.024000
      6 C6         -1.0550    1.9660    3.0120 c3        1 GTZ      0.138400
      7 N1         -0.7720   -0.2560   -1.0460 nd        1 GTZ     -0.371000
      8 O2          2.1420   -1.0960   -0.5160 oh        1 GTZ     -0.593800
      9 O3          3.3530    0.3690    1.6730 oh        1 GTZ     -0.604800
     10 O4          1.4140    2.3540    1.9090 oh        1 GTZ     -0.596800
     11 N5         -0.7790    0.4040    1.0650 na        1 GTZ     -0.057400
     12 O6         -2.2840    1.5660    3.5660 oh        1 GTZ     -0.594800
     13 NA         -2.0500    0.3300    0.6240 nc        1 GTZ     -0.194800
     14 NB         -2.0110   -0.0570   -0.5990 nd        1 GTZ     -0.042000
     15 H2          1.9380    0.9830   -0.4030 h1        1 GTZ      0.086700
     16 H3          1.8270   -1.0260    1.9840 h1        1 GTZ      0.074700
     17 H4          1.5730    0.9830    3.4700 h1        1 GTZ      0.074700
     18 H5         -0.4950   -0.1410    3.0630 h1        1 GTZ      0.094700
     19 H61        -1.1770    2.7880    2.2610 h1        1 GTZ      0.073200
     20 H62        -0.4510    2.3440    3.8830 h1        1 GTZ      0.073200
     21 HO2         1.8360   -1.1380   -1.4320 ho        1 GTZ      0.437000
     22 HO3         3.8510   -0.2640    1.1360 ho        1 GTZ      0.434000
     23 HO4         2.3720    2.4880    1.8610 ho        1 GTZ      0.432000
     24 HO6        -2.9160    1.4480    2.8460 ho        1 GTZ      0.421000
@<TRIPOS>BOND
     1    1    2 1   
     2    1    7 2   
     3    1   11 1   
     4    2    3 1   
     5    2    8 1   
     6    2   15 1   
     7    3    4 1   
     8    3    9 1   
     9    3   16 1   
    10    4    5 1   
    11    4   10 1   
    12    4   17 1   
    13    5    6 1   
    14    5   11 1   
    15    5   18 1   
    16    6   12 1   
    17    6   19 1   
    18    6   20 1   
    19    7   14 1   
    20    8   21 1   
    21    9   22 1   
    22   10   23 1   
    23   11   13 1   
    24   12   24 1   
    25   13   14 2   
@<TRIPOS>SUBSTRUCTURE
     1 GTZ         1 TEMP              0 ****  ****    0 ROOT
