@<TRIPOS>MOLECULE
GU7
   36    37     1     0     0
SMALL
bcc


@<TRIPOS>ATOM
      1 N9         -0.6540    0.3000    0.2440 nc        1 GU7     -0.616000
      2 C8          0.5650    0.4770   -0.2840 cd        1 GU7      0.487400
      3 N7          1.6180    0.5050    0.6670 na        1 GU7     -0.231900
      4 C5          0.9830    0.2340    1.9010 cd        1 GU7     -0.422200
      5 C6          1.4880    0.1320    3.2390 c         1 GU7      0.761100
      6 O6          2.6820    0.3070    3.5970 o         1 GU7     -0.747500
      7 N1          0.5190   -0.1600    4.2080 n         1 GU7     -0.479400
      8 C2         -0.8590   -0.2590    3.8810 cd        1 GU7      0.712800
      9 N2         -1.7540   -0.4540    4.9240 nh        1 GU7     -0.909800
     10 N3         -1.3580   -0.1200    2.6190 nc        1 GU7     -0.695700
     11 C4         -0.4320    0.1210    1.6380 cc        1 GU7      0.663300
     12 C10         2.9780    0.1800    0.3660 c3        1 GU7      0.022300
     13 C11         3.9490    1.3770    0.4860 c3        1 GU7      0.091800
     14 N12         4.1620    1.7990    1.8950 n4        1 GU7     -0.751000
     15 C13         5.0950    2.9630    2.0200 c3        1 GU7      0.077500
     16 C14         5.0060    3.5740    3.4370 c3        1 GU7      0.115900
     17 O15         5.8040    4.7400    3.3760 oh        1 GU7     -0.601300
     18 C16         6.5570    2.5630    1.7180 c3        1 GU7      0.115900
     19 O17         6.8840    1.3750    2.4020 oh        1 GU7     -0.601300
     20 HC8         0.7550    0.6340   -1.3570 h5        1 GU7      0.080100
     21 HN1         0.8290   -0.2560    5.1530 hn        1 GU7      0.349500
     22 HN21       -2.7120   -0.5990    4.6900 hn        1 GU7      0.458800
     23 HN22       -1.4320   -0.8180    5.7880 hn        1 GU7      0.458800
     24 H101        3.3320   -0.6550    1.0410 h1        1 GU7      0.099700
     25 H102        3.0540   -0.1730   -0.7050 h1        1 GU7      0.099700
     26 H111        4.9450    1.0590    0.0620 hx        1 GU7      0.109700
     27 H112        3.5660    2.2620   -0.0960 hx        1 GU7      0.109700
     28 H12         4.5530    1.0030    2.4330 hn        1 GU7      0.475300
     29 H13         4.7830    3.7510    1.2710 hx        1 GU7      0.118700
     30 H141        3.9450    3.8300    3.7010 h1        1 GU7      0.072950
     31 H142        5.4250    2.8590    4.1960 h1        1 GU7      0.072950
     32 H15         5.6310    5.2470    4.1810 ho        1 GU7      0.438500
     33 H161        7.2140    3.4290    2.0020 h1        1 GU7      0.072950
     34 H162        6.6830    2.3370    0.6240 h1        1 GU7      0.072950
     35 H17         7.3990    1.6050    3.1860 ho        1 GU7      0.438500
     36 H122        3.2550    2.0240    2.3320 hn        1 GU7      0.475300
@<TRIPOS>BOND
     1    1    2 2
     2    1   11 1
     3    2    3 1
     4    2   20 1
     5    3    4 1
     6    3   12 1
     7    4    5 1
     8    4   11 2
     9    5    6 2
    10    5    7 1
    11    7    8 1
    12    7   21 1
    13    8    9 1
    14    8   10 2
    15    9   22 1
    16    9   23 1
    17   10   11 1
    18   12   13 1
    19   12   24 1
    20   12   25 1
    21   13   14 1
    22   13   26 1
    23   13   27 1
    24   14   15 1
    25   14   28 1
    26   14   36 1
    27   15   16 1
    28   15   18 1
    29   15   29 1
    30   16   17 1
    31   16   30 1
    32   16   31 1
    33   17   32 1
    34   18   19 1
    35   18   33 1
    36   18   34 1
    37   19   35 1
@<TRIPOS>SUBSTRUCTURE
     1 GU7         1 TEMP              0 ****  ****    0 ROOT
