@<TRIPOS>MOLECULE
GUA
   15    14     1     0     0
SMALL
bcc


@<TRIPOS>ATOM
      1 C1         -0.0280    0.3160   -0.0580 c         1 GUA      0.903600
      2 C2          1.4840    0.0970    0.0380 c3        1 GUA     -0.177400
      3 C3          2.0060    0.0010    1.4560 c3        1 GUA     -0.047400
      4 C4          3.5170   -0.1000    1.4780 c3        1 GUA     -0.177400
      5 C5          4.1070   -0.3140    2.8750 c         1 GUA      0.903600
      6 O1         -0.5300    1.4100    0.3420 o         1 GUA     -0.878800
      7 O2         -0.7390   -0.5920   -0.5930 o         1 GUA     -0.878800
      8 O3          3.8940   -1.4050    3.4850 o         1 GUA     -0.878800
      9 O4          4.8500    0.5940    3.3640 o         1 GUA     -0.878800
     10 H21         1.7480   -0.8380   -0.5210 hc        1 GUA      0.007700
     11 H22         1.9850    0.9560   -0.4810 hc        1 GUA      0.007700
     12 H31         1.6750    0.9030    2.0320 hc        1 GUA      0.038700
     13 H32         1.5690   -0.8980    1.9630 hc        1 GUA      0.038700
     14 H41         3.8380   -0.9620    0.8370 hc        1 GUA      0.007700
     15 H42         3.9590    0.8320    1.0400 hc        1 GUA      0.007700
@<TRIPOS>BOND
     1    1    2 1   
     2    1    6 1   
     3    1    7 1   
     4    2    3 1   
     5    2   10 1   
     6    2   11 1   
     7    3    4 1   
     8    3   12 1   
     9    3   13 1   
    10    4    5 1   
    11    4   14 1   
    12    4   15 1   
    13    5    8 1   
    14    5    9 1   
@<TRIPOS>SUBSTRUCTURE
     1 GUA         1 TEMP              0 ****  ****    0 ROOT
