@<TRIPOS>MOLECULE
molecule
   15    14     1     0     0
SMALL
bcc


@<TRIPOS>ATOM
      1 C1           0.0000     0.0000     0.0000 c          1 GUA       0.890600
      2 C2           1.5060     0.0000     0.0000 c3         1 GUA      -0.184900
      3 C3           2.0170     0.0000     1.4410 c3         1 GUA      -0.047400
      4 C4           3.5460    -0.0000     1.4410 c3         1 GUA      -0.184900
      5 C5           4.0490    -0.0000     2.8610 c          1 GUA       0.890600
      6 O1          -0.6040     0.0000     1.0470 o          1 GUA      -0.879050
      7 O2          -0.6720     0.0000    -1.1620 o          1 GUA      -0.879050
      8 O3           3.2650     0.0000     3.7790 o          1 GUA      -0.879050
      9 O4           5.3680    -0.0000     3.1070 o          1 GUA      -0.879050
     10 H21          1.8670    -0.8840    -0.5110 hc         1 GUA       0.014700
     11 H22          1.8670     0.8840    -0.5110 hc         1 GUA       0.014700
     12 H31          1.6560     0.8840     1.9520 hc         1 GUA       0.047700
     13 H32          1.6560    -0.8840     1.9520 hc         1 GUA       0.047700
     14 H41          3.9070    -0.8840     0.9310 hc         1 GUA       0.014700
     15 H42          3.9070     0.8840     0.9310 hc         1 GUA       0.014700
@<TRIPOS>BOND
     1     1     2 1
     2     1     6 1
     3     1     7 1
     4     2     3 1
     5     2    10 1
     6     2    11 1
     7     3     4 1
     8     3    12 1
     9     3    13 1
    10     4     5 1
    11     4    14 1
    12     4    15 1
    13     5     8 1
    14     5     9 1
@<TRIPOS>SUBSTRUCTURE
     1 GUA         1 TEMP              0 ****  ****    0 ROOT
