@<TRIPOS>MOLECULE
GUB
   48    51     1     0     0
SMALL
bcc


@<TRIPOS>ATOM
      1 C2           0.0000     0.0000     0.0000 c3         1 GUB       0.019900
      2 C3           1.5300     0.0000     0.0000 c3         1 GUB       0.158800
      3 C5           3.3800    -0.0000     1.6330 ca         1 GUB       0.605200
      4 O18          5.7160    -0.7190     9.3470 oh         1 GUB      -0.589800
      5 C17          6.6940     0.1950     8.8470 c3         1 GUB       0.227400
      6 C16          6.3520     0.5700     7.4030 c3         1 GUB       0.143100
      7 C19          7.3240     1.6560     6.8760 c3         1 GUB       0.141100
      8 O20          8.6480     1.4380     7.3700 oh         1 GUB      -0.545800
      9 O15          6.5850    -0.5470     6.5190 os         1 GUB      -0.356600
     10 C14          6.7420    -0.0100     5.1960 c3         1 GUB       0.147800
     11 C21          7.2600     1.4330     5.3460 c3         1 GUB       0.125100
     12 O22          8.5610     1.5590     4.7670 oh         1 GUB      -0.543800
     13 N13          5.4510    -0.0060     4.5030 na         1 GUB       0.172000
     14 C12          4.2200     0.0010     5.0910 cc         1 GUB       0.243700
     15 N11          3.2920     0.0040     4.1790 nd         1 GUB      -0.495100
     16 C10          3.8660    -0.0000     2.9510 ca         1 GUB      -0.244200
     17 C9           5.2580    -0.0070     3.1450 ca         1 GUB       0.275800
     18 N6           4.2560    -0.0060     0.6350 nb         1 GUB      -0.743000
     19 C7           5.5560    -0.0110     0.8660 ca         1 GUB       0.691900
     20 N8           6.0570    -0.0120     2.0840 nb         1 GUB      -0.686000
     21 N4           2.0180     0.0000     1.3810 nu         1 GUB      -0.474900
     22 C1          -0.5020     0.0000    -1.4210 ca         1 GUB      -0.090300
     23 C23         -0.7330    -1.1970    -2.0720 ca         1 GUB      -0.094500
     24 C24         -1.1940    -1.1960    -3.3760 ca         1 GUB      -0.097500
     25 C25         -1.4250     0.0010    -4.0270 ca         1 GUB      -0.101000
     26 C26         -1.1950     1.1980    -3.3750 ca         1 GUB      -0.097500
     27 C27         -0.7380     1.1990    -2.0710 ca         1 GUB      -0.094500
     28 H2          -0.3610    -0.8850     0.5100 hc         1 GUB       0.021200
     29 H2A         -0.3610     0.8840     0.5110 hc         1 GUB       0.021200
     30 H3           1.8910    -0.8840    -0.5110 h1         1 GUB       0.030200
     31 H3A          1.8910     0.8840    -0.5110 h1         1 GUB       0.030200
     32 HO18         5.9080    -0.9230    10.2470 ho         1 GUB       0.394000
     33 H17          7.6710    -0.2710     8.8770 h1         1 GUB       0.003700
     34 H17A         6.7000     1.0880     9.4600 h1         1 GUB       0.003700
     35 H16          5.3260     0.9090     7.3230 h1         1 GUB       0.031700
     36 H19          6.9670     2.6460     7.1340 h1         1 GUB       0.011700
     37 HO20         9.0300     2.2630     7.6190 ho         1 GUB       0.389000
     38 H14          7.4610    -0.6020     4.6430 h2         1 GUB       0.087700
     39 H21          6.5680     2.1310     4.8930 h1         1 GUB       0.021700
     40 HO22         8.5920     2.3340     4.2320 ho         1 GUB       0.391000
     41 H12          4.0410     0.0010     6.1600 h5         1 GUB       0.044800
     42 H7           6.2360    -0.0160     0.0230 h5         1 GUB      -0.004900
     43 HN4          1.3680    -0.0050     2.1420 hn         1 GUB       0.309800
     44 H23         -0.5520    -2.1350    -1.5620 ha         1 GUB       0.105500
     45 H24         -1.3740    -2.1340    -3.8870 ha         1 GUB       0.102500
     46 H25         -1.7850     0.0010    -5.0490 ha         1 GUB       0.102000
     47 H26         -1.3780     2.1370    -3.8850 ha         1 GUB       0.102500
     48 H27         -0.5580     2.1370    -1.5600 ha         1 GUB       0.105500
@<TRIPOS>BOND
     1     1     2 1   
     2     1    22 1   
     3     1    28 1   
     4     1    29 1   
     5     2    21 1   
     6     2    30 1   
     7     2    31 1   
     8     3    16 ar  
     9     3    18 ar  
    10     3    21 1   
    11     4     5 1   
    12     4    32 1   
    13     5     6 1   
    14     5    33 1   
    15     5    34 1   
    16     6     7 1   
    17     6     9 1   
    18     6    35 1   
    19     7     8 1   
    20     7    11 1   
    21     7    36 1   
    22     8    37 1   
    23     9    10 1   
    24    10    11 1   
    25    10    13 1   
    26    10    38 1   
    27    11    12 1   
    28    11    39 1   
    29    12    40 1   
    30    13    14 1   
    31    13    17 1   
    32    14    15 2   
    33    14    41 1   
    34    15    16 1   
    35    16    17 ar  
    36    17    20 ar  
    37    18    19 ar  
    38    19    20 ar  
    39    19    42 1   
    40    21    43 1   
    41    22    23 ar  
    42    22    27 ar  
    43    23    24 ar  
    44    23    44 1   
    45    24    25 ar  
    46    24    45 1   
    47    25    26 ar  
    48    25    46 1   
    49    26    27 ar  
    50    26    47 1   
    51    27    48 1   
@<TRIPOS>SUBSTRUCTURE
     1 GUB         1 TEMP              0 ****  ****    0 ROOT
