@<TRIPOS>MOLECULE
molecule
   54    57     1     0     0
SMALL
bcc


@<TRIPOS>ATOM
      1 N1           0.0000     0.0000     0.0000 na         1 GUE      -0.671000
      2 C2           1.3620     0.0000     0.0000 cc         1 GUE       0.446100
      3 N3           2.0610     0.0000     1.1130 nd         1 GUE      -0.699100
      4 C4           1.4560     0.0040     2.3140 c          1 GUE       0.738700
      5 C6          -2.0530    -0.4660     3.5940 c3         1 GUE      -0.047000
      6 C1'         -0.9700     1.6220     9.6130 ca         1 GUE      -0.110600
      7 C2'          0.1400     1.6830     8.7640 ca         1 GUE      -0.052000
      8 C3'          0.0190     1.2970     7.4500 ca         1 GUE      -0.161000
      9 C4'         -1.2050     0.8460     6.9640 ca         1 GUE      -0.005200
     10 C5'         -2.3120     0.7840     7.8060 ca         1 GUE      -0.161000
     11 O4           2.1170     0.0060     3.3420 o          1 GUE      -0.583100
     12 C4A          0.0460     0.0070     2.3680 cc         1 GUE      -0.311300
     13 N5          -0.6550     0.0290     3.5480 nh         1 GUE      -0.075300
     14 C7          -2.7940     0.2440     2.4580 c3         1 GUE       0.231800
     15 N8          -2.0590    -0.0230     1.2090 nu         1 GUE      -0.814000
     16 C8A         -0.6840     0.0020     1.1860 cd         1 GUE       0.407000
     17 N2           2.0240    -0.0000    -1.2000 nz         1 GUE      -0.681600
     18 C9          -2.5680    -0.0470     4.9730 c3         1 GUE       0.026300
     19 N10         -1.3230     0.4570     5.6330 nh         1 GUE      -0.175300
     20 C6'         -2.1980     1.1690     9.1230 ca         1 GUE      -0.052000
     21 O11         -1.8080     1.9720    11.7640 o          1 GUE      -0.597100
     22 N            0.3410     2.4670    11.4970 ns         1 GUE      -0.529900
     23 CA           0.4670     2.8720    12.9000 c3         1 GUE       0.102700
     24 C            0.0410     4.3100    13.0480 c          1 GUE       0.881600
     25 OX1          0.0730     4.8990    14.2530 o          1 GUE      -0.709300
     26 OX2         -0.3290     4.9330    12.0800 o          1 GUE      -0.709300
     27 CB           1.9220     2.7230    13.3450 c3         1 GUE      -0.181400
     28 CG           2.3160     1.2440    13.3140 c3         1 GUE      -0.131400
     29 CD           3.7500     1.0970    13.7530 c          1 GUE       0.884600
     30 OE1          4.3150    -0.1190    13.8030 o          1 GUE      -0.717800
     31 OE2          4.3920     2.0740    14.0590 o          1 GUE      -0.717800
     32 C1          -0.3100     0.4530     4.7070 c2         1 GUE       0.348700
     33 H1          -2.0870    -1.5430     3.4750 h1         1 GUE       0.110700
     34 H2           1.0930     2.0340     9.1410 ha         1 GUE       0.170500
     35 H3           0.8850     1.3200     6.7990 ha         1 GUE       0.134000
     36 H4          -3.2730     0.4640     7.4220 ha         1 GUE       0.134000
     37 H7          -2.7670     1.3080     2.6570 h1         1 GUE       0.080200
     38 H8          -3.8230    -0.0890     2.4080 h1         1 GUE       0.080200
     39 H9          -2.5990    -0.1760     0.3800 hn         1 GUE       0.451800
     40 H10          1.3900     0.1640    -1.9570 hn         1 GUE       0.445800
     41 H11          2.7040     0.7340    -1.2000 hn         1 GUE       0.445800
     42 H12         -2.8960    -0.9320     5.5040 h1         1 GUE       0.098700
     43 H13         -3.2500     0.7830     4.8340 h1         1 GUE       0.098700
     44 H14         -3.0620     1.1320     9.7750 ha         1 GUE       0.170500
     45 H15          1.1030     2.6760    10.8820 hn         1 GUE       0.327500
     46 H16         -0.1760     2.2610    13.5210 h1         1 GUE       0.080700
     47 H18          1.0930     2.2760    13.8790 hc         1 GUE       0.117200
     48 H19          2.3150     3.3240    14.1560 hc         1 GUE       0.117200
     49 H20          1.7030     0.7370    14.0500 hc         1 GUE       0.042200
     50 H21          2.1480     0.7960    12.3430 hc         1 GUE       0.042200
     51 H23          0.7230     0.3870     5.0260 h5         1 GUE       0.134800
     52 H25         -0.4990    -0.0090    -0.8670 hn         1 GUE       0.435800
     53 H231         2.4780    -0.8820    -1.3350 hn         1 GUE       0.445800
     54 C11         -0.8440     2.0310    11.0250 c          1 GUE       0.662700
@<TRIPOS>BOND
     1    26    24 1
     2    24    25 1
     3    24    23 1
     4    23    27 1
     5    23    22 1
     6    21    54 2
     7    27    28 1
     8    54    22 1
     9    54     6 1
    10     7     6 ar
    11     7     8 ar
    12     6    20 ar
    13    11     4 2
    14    28    29 1
    15     8     9 ar
    16    31    29 1
    17    20    10 ar
    18    29    30 1
    19     4     3 1
    20     4    12 1
    21     9    10 ar
    22     9    19 1
    23     3     2 2
    24    32    19 1
    25    32    13 2
    26    19    18 1
    27    12    13 1
    28    12    16 2
    29    13     5 1
    30     2    17 1
    31     2     1 1
    32    18     5 1
    33     5    14 1
    34    16     1 1
    35    16    15 1
    36    14    15 1
    37     5    33 1
    38     7    34 1
    39     8    35 1
    40    10    36 1
    41    14    37 1
    42    14    38 1
    43    15    39 1
    44    17    40 1
    45    17    41 1
    46    18    42 1
    47    18    43 1
    48    20    44 1
    49    22    45 1
    50    23    46 1
    51    27    47 1
    52    27    48 1
    53    28    49 1
    54    28    50 1
    55    32    51 1
    56     1    52 1
    57    53    17 1
@<TRIPOS>SUBSTRUCTURE
     1 GUE         1 TEMP              0 ****  ****    0 ROOT
