@<TRIPOS>MOLECULE
molecule
   82    86     1     0     0
SMALL
bcc


@<TRIPOS>ATOM
      1 C1           0.0000     0.0000     0.0000 ca         1 GUI      -0.342200
      2 C2           1.3980     0.0000     0.0000 ca         1 GUI       0.766200
      3 N3           2.0430     0.0000     1.1620 nb         1 GUI      -0.847000
      4 C4           1.3730    -0.0010     2.3050 ca         1 GUI       0.971900
      5 N5           0.0480    -0.0020     2.3350 nb         1 GUI      -0.813000
      6 C6          -0.6590    -0.0010     1.2150 ca         1 GUI       0.537200
      7 N7           2.0750    -0.0020     3.4990 nu         1 GUI      -0.733300
      8 C8           1.3860    -0.0960     4.7180 ca         1 GUI       0.100600
      9 C9           0.2030    -0.8150     4.7930 ca         1 GUI      -0.068000
     10 C10         -0.4760    -0.9090     5.9930 ca         1 GUI      -0.205000
     11 C11          0.0250    -0.2830     7.1260 ca         1 GUI       0.129600
     12 C12          1.2100     0.4360     7.0570 ca         1 GUI      -0.230000
     13 C13          1.8940     0.5260     5.8550 ca         1 GUI       0.133100
     14 O14          3.0580     1.2270     5.7860 os         1 GUI      -0.336900
     15 C15          3.5200     1.8400     6.9910 c3         1 GUI       0.130700
     16 N16         -0.6640    -0.3790     8.3410 nh         1 GUI      -0.594000
     17 C17         -1.8860    -1.1800     8.1900 c3         1 GUI       0.166300
     18 C18         -2.6860    -1.1420     9.4940 c3         1 GUI      -0.079900
     19 C19         -1.8240    -1.6970    10.6320 c3         1 GUI       0.170500
     20 C20         -0.5370    -0.8750    10.7370 c3         1 GUI      -0.079900
     21 C21          0.2010    -0.9210     9.3960 c3         1 GUI       0.166300
     22 N22         -2.5670    -1.6100    11.8970 n3         1 GUI      -0.728600
     23 C23         -1.7680    -2.1350    13.0130 c3         1 GUI       0.160300
     24 C24         -2.5430    -1.9520    14.3220 c3         1 GUI       0.163800
     25 N25         -3.8320    -2.6510    14.2250 n3         1 GUI      -0.734600
     26 C26         -4.6300    -2.1260    13.1090 c3         1 GUI       0.163800
     27 C27         -3.8560    -2.3080    11.8010 c3         1 GUI       0.160300
     28 C28         -4.5740    -2.5630    15.4900 c3         1 GUI       0.153100
     29 N29          2.1020     0.0010    -1.1950 nu         1 GUI      -0.777300
     30 C30          3.5000     0.0040    -1.1830 ca         1 GUI       0.242600
     31 C31          4.2040     0.5620    -2.2410 ca         1 GUI      -0.328500
     32 C32          5.5850     0.5630    -2.2260 ca         1 GUI      -0.011000
     33 C33          6.2660     0.0090    -1.1590 ca         1 GUI      -0.172000
     34 C34          5.5690    -0.5490    -0.1030 ca         1 GUI      -0.064000
     35 C35          4.1880    -0.5470    -0.1090 ca         1 GUI      -0.158000
     36 S36          3.3370     1.2690    -3.6030 sy         1 GUI       1.198300
     37 C37          2.4100     2.6510    -2.8810 c3         1 GUI      -0.189900
     38 C38          3.3900     3.6830    -2.3180 c3         1 GUI      -0.073600
     39 C39          1.5460     3.3050    -3.9610 c3         1 GUI      -0.073600
     40 O40          4.3620     1.7500    -4.4610 o          1 GUI      -0.626800
     41 O41          2.4500     0.2420    -4.0250 o          1 GUI      -0.626800
     42 Cl          -0.8880     0.0080    -1.4920 cl         1 GUI      -0.092400
     43 H6          -1.7410    -0.0010     1.2500 h4         1 GUI       0.043100
     44 H29          1.6110    -0.0590    -2.0650 hn         1 GUI       0.491800
     45 H7           3.0750     0.0350     3.4910 hn         1 GUI       0.474800
     46 H9          -0.1900    -1.3040     3.9090 ha         1 GUI       0.166000
     47 H10         -1.4010    -1.4700     6.0490 ha         1 GUI       0.141000
     48 H12          1.6030     0.9220     7.9420 ha         1 GUI       0.146000
     49 H151         2.7650     2.5230     7.3620 h1         1 GUI       0.043033
     50 H152         3.7120     1.0750     7.7350 h1         1 GUI       0.043033
     51 H153         4.4340     2.3860     6.7910 h1         1 GUI       0.043033
     52 H171        -1.6180    -2.2050     7.9630 h1         1 GUI       0.042950
     53 H172        -2.4870    -0.7720     7.3870 h1         1 GUI       0.042950
     54 H211         0.4560    -1.9470     9.1600 h1         1 GUI       0.042950
     55 H212         1.1040    -0.3260     9.4610 h1         1 GUI       0.042950
     56 H181        -3.5770    -1.7490     9.3880 hc         1 GUI       0.059200
     57 H182        -2.9620    -0.1190     9.7180 hc         1 GUI       0.059200
     58 H19         -1.5750    -2.7310    10.4240 h1         1 GUI       0.023700
     59 H201        -0.7830     0.1520    10.9780 hc         1 GUI       0.059200
     60 H202         0.0960    -1.2920    11.5110 hc         1 GUI       0.059200
     61 H231        -1.5750    -3.1890    12.8530 h1         1 GUI       0.041700
     62 H232        -0.8310    -1.5950    13.0710 h1         1 GUI       0.041700
     63 H271        -3.6820    -3.3640    11.6300 h1         1 GUI       0.041700
     64 H272        -4.4300    -1.8940    10.9820 h1         1 GUI       0.041700
     65 H241        -1.9690    -2.3670    15.1410 h1         1 GUI       0.040950
     66 H242        -2.7170    -0.8970    14.4930 h1         1 GUI       0.040950
     67 H261        -5.5670    -2.6670    13.0510 h1         1 GUI       0.040950
     68 H262        -4.8240    -1.0720    13.2690 h1         1 GUI       0.040950
     69 H281        -5.5030    -3.1130    15.4020 h1         1 GUI       0.031700
     70 H282        -3.9770    -2.9860    16.2890 h1         1 GUI       0.031700
     71 H283        -4.7890    -1.5240    15.7110 h1         1 GUI       0.031700
     72 H35          3.6410    -0.9840     0.7180 ha         1 GUI       0.177000
     73 H32          6.1350     0.9990    -3.0510 ha         1 GUI       0.160000
     74 H33          7.3500     0.0080    -1.1510 ha         1 GUI       0.136000
     75 H34          6.1060    -0.9810     0.7330 ha         1 GUI       0.134000
     76 H37          1.7750     2.2830    -2.0830 h1         1 GUI       0.104700
     77 H381         4.1610     3.8860    -3.0520 hc         1 GUI       0.051867
     78 H382         2.8580     4.5990    -2.0910 hc         1 GUI       0.051867
     79 H383         3.8440     3.2950    -1.4150 hc         1 GUI       0.051867
     80 H391         0.8540     2.5750    -4.3620 hc         1 GUI       0.051867
     81 H392         0.9900     4.1290    -3.5290 hc         1 GUI       0.051867
     82 H393         2.1810     3.6760    -4.7570 hc         1 GUI       0.051867
@<TRIPOS>BOND
     1     1     2 ar
     2     1     6 ar
     3     1    42 1
     4     2     3 ar
     5     2    29 1
     6     3     4 ar
     7     4     5 ar
     8     4     7 1
     9     5     6 ar
    10     7     8 1
    11     8     9 ar
    12     8    13 ar
    13     9    10 ar
    14    10    11 ar
    15    11    12 ar
    16    11    16 1
    17    12    13 ar
    18    13    14 1
    19    14    15 1
    20    16    17 1
    21    16    21 1
    22    17    18 1
    23    18    19 1
    24    19    20 1
    25    19    22 1
    26    20    21 1
    27    22    23 1
    28    22    27 1
    29    23    24 1
    30    24    25 1
    31    25    26 1
    32    25    28 1
    33    26    27 1
    34    29    30 1
    35    30    31 ar
    36    30    35 ar
    37    31    32 ar
    38    31    36 1
    39    32    33 ar
    40    33    34 ar
    41    34    35 ar
    42    36    37 1
    43    36    40 2
    44    36    41 2
    45    37    38 1
    46    37    39 1
    47     6    43 1
    48    29    44 1
    49     7    45 1
    50     9    46 1
    51    10    47 1
    52    12    48 1
    53    15    49 1
    54    15    50 1
    55    15    51 1
    56    17    52 1
    57    17    53 1
    58    21    54 1
    59    21    55 1
    60    18    56 1
    61    18    57 1
    62    19    58 1
    63    20    59 1
    64    20    60 1
    65    23    61 1
    66    23    62 1
    67    27    63 1
    68    27    64 1
    69    24    65 1
    70    24    66 1
    71    26    67 1
    72    26    68 1
    73    28    69 1
    74    28    70 1
    75    28    71 1
    76    35    72 1
    77    32    73 1
    78    33    74 1
    79    34    75 1
    80    37    76 1
    81    38    77 1
    82    38    78 1
    83    38    79 1
    84    39    80 1
    85    39    81 1
    86    39    82 1
@<TRIPOS>SUBSTRUCTURE
     1 GUI         1 TEMP              0 ****  ****    0 ROOT
