@<TRIPOS>MOLECULE
GUL
   23    23     1     0     0
SMALL
bcc


@<TRIPOS>ATOM
      1 C5          0.0390   -0.0390    0.0250 c3        1 GUL      0.295100
      2 C2          1.6390    1.0620    2.1800 c3        1 GUL      0.062100
      3 F1         -0.4740   -1.2380    0.4790 f         1 GUL     -0.239300
      4 O2          2.1680    0.9680    3.4850 oh        1 GUL     -0.560800
      5 C3          2.2370   -0.0900    1.3610 c3        1 GUL      0.159100
      6 O3          2.1040   -1.3530    1.9630 oh        1 GUL     -0.572800
      7 C4          1.5940   -0.0950   -0.0390 c3        1 GUL      0.078100
      8 O4          2.1010    1.0250   -0.7320 oh        1 GUL     -0.587800
      9 C6         -0.5580    0.3440   -1.3610 c3        1 GUL      0.115400
     10 O6          0.1190   -0.3450   -2.3860 oh        1 GUL     -0.600800
     11 O          -0.4820    0.9310    0.9220 os        1 GUL     -0.441600
     12 C1          0.0920    1.0100    2.2130 c3        1 GUL      0.332400
     13 F2         -0.4050   -0.0700    2.9020 f         1 GUL     -0.234300
     14 H2          1.9330    2.0330    1.6900 h1        1 GUL      0.078700
     15 HO2         1.8490    1.7380    3.9730 ho        1 GUL      0.405000
     16 H3          3.3500    0.0640    1.2620 h1        1 GUL      0.111700
     17 HO3         1.1800   -1.4630    2.2340 ho        1 GUL      0.421000
     18 H4          1.8700   -1.0540   -0.5630 h1        1 GUL      0.077700
     19 HO4         1.9290    0.8750   -1.6740 ho        1 GUL      0.429000
     20 H61        -1.6560    0.1240   -1.3660 h1        1 GUL      0.081700
     21 H62        -0.3710    1.4340   -1.5530 h1        1 GUL      0.081700
     22 HO6        -0.1220   -1.2780   -2.3170 ho        1 GUL      0.416000
     23 H1         -0.3320    1.9680    2.6410 h2        1 GUL      0.090700
@<TRIPOS>BOND
     1    1    3 1   
     2    1    7 1   
     3    1    9 1   
     4    1   11 1   
     5    2    4 1   
     6    2    5 1   
     7    2   12 1   
     8    2   14 1   
     9    4   15 1   
    10    5    6 1   
    11    5    7 1   
    12    5   16 1   
    13    6   17 1   
    14    7    8 1   
    15    7   18 1   
    16    8   19 1   
    17    9   10 1   
    18    9   20 1   
    19    9   21 1   
    20   10   22 1   
    21   11   12 1   
    22   12   13 1   
    23   12   23 1   
@<TRIPOS>SUBSTRUCTURE
     1 GUL         1 TEMP              0 ****  ****    0 ROOT
