@<TRIPOS>MOLECULE
molecule
   23    23     1     0     0
SMALL
bcc


@<TRIPOS>ATOM
      1 C5           0.0000     0.0000     0.0000 c3         1 GUL       0.399100
      2 C2           1.4250     1.0980     2.2510 c3         1 GUL       0.087100
      3 F1          -0.4430    -1.1990     0.4750 f          1 GUL      -0.209300
      4 O2           1.8400     1.0420     3.6080 oh         1 GUL      -0.577800
      5 C3           2.1000     0.0000     1.4250 c3         1 GUL       0.122100
      6 O3           1.8650    -1.2790     2.0090 oh         1 GUL      -0.564800
      7 C4           1.5380     0.0000     0.0000 c3         1 GUL       0.093100
      8 O4           2.0120     1.1520    -0.6910 oh         1 GUL      -0.597800
      9 C6          -0.5870     0.1750    -1.3950 c3         1 GUL       0.128400
     10 O6          -0.1330    -0.8880    -2.2150 oh         1 GUL      -0.608800
     11 O           -0.5480     1.0280     0.8300 os         1 GUL      -0.442600
     12 C1          -0.0900     0.9890     2.1790 c3         1 GUL       0.381400
     13 F2          -0.5120    -0.1750     2.7380 f          1 GUL      -0.211300
     14 H2           1.7160     2.0570     1.8400 h1         1 GUL       0.059700
     15 HO2          2.2110     1.8720     3.8570 ho         1 GUL       0.403000
     16 H3           3.1660     0.1900     1.3860 h1         1 GUL       0.043700
     17 HO3          2.6890    -1.7150     2.1550 ho         1 GUL       0.405000
     18 H4           1.8860    -0.8890    -0.5120 h1         1 GUL       0.077700
     19 HO4          2.7890     0.9300    -1.1770 ho         1 GUL       0.411000
     20 H61         -1.6680     0.1550    -1.3400 h1         1 GUL       0.051200
     21 H62         -0.2610     1.1200    -1.8110 h1         1 GUL       0.051200
     22 HO6         -0.6690    -0.9390    -2.9890 ho         1 GUL       0.415000
     23 H1          -0.5260     1.8210     2.7200 h2         1 GUL       0.083700
@<TRIPOS>BOND
     1     1     3 1
     2     1     7 1
     3     1     9 1
     4     1    11 1
     5     2     4 1
     6     2     5 1
     7     2    12 1
     8     2    14 1
     9     4    15 1
    10     5     6 1
    11     5     7 1
    12     5    16 1
    13     6    17 1
    14     7     8 1
    15     7    18 1
    16     8    19 1
    17     9    10 1
    18     9    20 1
    19     9    21 1
    20    10    22 1
    21    11    12 1
    22    12    13 1
    23    12    23 1
@<TRIPOS>SUBSTRUCTURE
     1 GUL         1 TEMP              0 ****  ****    0 ROOT
