@<TRIPOS>MOLECULE
GUN
   17    18     1     0     0
SMALL
bcc


@<TRIPOS>ATOM
      1 N9           0.0000     0.0000     0.0000 na         1 GUN       0.307100
      2 C8           1.3650     0.0000     0.0000 cc         1 GUN       0.299400
      3 N7           1.8050     0.0000     1.2240 nd         1 GUN      -0.496000
      4 C5           0.7530     0.0000     2.0790 cd         1 GUN       0.283800
      5 C6           0.6300    -0.0010     3.4880 c          1 GUN       0.520000
      6 O6           1.6190    -0.0010     4.2020 o          1 GUN      -0.560500
      7 N1          -0.6100     0.0040     4.0230 ns         1 GUN       0.000600
      8 C2          -1.7080     0.0000     3.2160 cd         1 GUN      -0.019200
      9 N2          -2.9560    -0.0010     3.7880 nz         1 GUN       0.223400
     10 N3          -1.6060     0.0000     1.9050 nc         1 GUN      -0.341100
     11 C4          -0.4120     0.0000     1.3050 cc         1 GUN      -0.255200
     12 HN9         -0.5920    -0.0000    -0.8070 hn         1 GUN       0.146700
     13 H8           1.9880    -0.0000    -0.8860 h5         1 GUN       0.051100
     14 HN1         -0.7230     0.0110     5.0170 hn         1 GUN       0.190500
     15 HN21        -3.0660     0.8200     4.3490 hn         1 GUN       0.217133
     16 HN22        -3.6520    -0.0100     3.0690 hn         1 GUN       0.217133
     17 H23         -3.0590    -0.8140     4.3620 hn         1 GUN       0.217133
@<TRIPOS>BOND
     1     1     2 1   
     2     1    11 1   
     3     1    12 1   
     4     2     3 2   
     5     2    13 1   
     6     3     4 1   
     7     4     5 1   
     8     4    11 2   
     9     5     6 2   
    10     5     7 1   
    11     7     8 1   
    12     7    14 1   
    13     8     9 1   
    14     8    10 2   
    15     9    15 1   
    16     9    16 1   
    17     9    17 1   
    18    10    11 1   
@<TRIPOS>SUBSTRUCTURE
     1 GUN         1 TEMP              0 ****  ****    0 ROOT
