@<TRIPOS>MOLECULE
GUQ
   38    41     1     0     0
SMALL
bcc


@<TRIPOS>ATOM
      1 C14          0.0000     0.0000     0.0000 ca         1 GUQ      -0.090000
      2 C13          1.3720     0.0000     0.0000 ca         1 GUQ      -0.064000
      3 C12          2.0870     0.0000     1.2180 ca         1 GUQ       0.116400
      4 C16         -0.0310     0.0110     2.3940 ca         1 GUQ      -0.037000
      5 C15         -0.7070     0.0050     1.1940 ca         1 GUQ      -0.109000
      6 N            5.6840    -0.3920     6.5620 ns         1 GUQ      -0.168500
      7 C           10.4980     1.1380     4.0410 c3         1 GUQ       0.244700
      8 C1           8.3560     2.1630     3.9590 ca         1 GUQ       0.179100
      9 C10          6.4100     0.7170     6.3360 c          1 GUQ       0.624700
     10 C11          3.8520    -0.0000     2.6280 cc         1 GUQ       0.476100
     11 C17          1.3620     0.0000     2.4140 ca         1 GUQ      -0.031100
     12 C2           8.9520     3.2340     3.3130 ca         1 GUQ      -0.212000
     13 C3           8.1920     4.3220     2.9290 ca         1 GUQ      -0.040000
     14 C4           6.8320     4.3520     3.1860 ca         1 GUQ      -0.143000
     15 C5           6.2220     3.2950     3.8270 ca         1 GUQ      -0.034000
     16 C6           6.9770     2.1870     4.2160 ca         1 GUQ      -0.090800
     17 C7           6.3290     1.0480     4.8990 cc         1 GUQ      -0.069400
     18 C8           5.5370     0.0910     4.3240 cd         1 GUQ      -0.120200
     19 C9           5.1370    -0.8290     5.4140 c          1 GUQ       0.611700
     20 N1           5.1830    -0.0010     2.9900 nu         1 GUQ      -0.182000
     21 N2           3.4190    -0.0010     1.4130 nd         1 GUQ      -0.539100
     22 O2           4.4300    -1.8080     5.2920 o          1 GUQ      -0.587500
     23 S            2.5030     0.0040     3.7560 ss         1 GUQ      -0.218100
     24 H10         -0.5370    -0.0040    -0.9410 ha         1 GUQ       0.104000
     25 H9           1.9100    -0.0040    -0.9400 ha         1 GUQ       0.113000
     26 H12         -0.5840     0.0150     3.3250 ha         1 GUQ       0.109000
     27 H11         -1.7900     0.0050     1.1830 ha         1 GUQ       0.107000
     28 H7           5.5710    -0.8310     7.4540 hn         1 GUQ       0.204500
     29 H           10.9440     1.9940     4.5330 h1         1 GUQ      -0.000300
     30 H1          10.6240     1.2320     2.9690 h1         1 GUQ      -0.000300
     31 H2          10.9820     0.2320     4.3840 h1         1 GUQ      -0.000300
     32 H3          10.0160     3.2180     3.1090 ha         1 GUQ       0.124000
     33 H4           8.6640     5.1570     2.4250 ha         1 GUQ       0.102000
     34 H5           6.2450     5.2100     2.8830 ha         1 GUQ       0.110000
     35 H6           5.1570     3.3220     4.0240 ha         1 GUQ       0.111000
     36 H8           5.8920    -0.1010     2.2910 hn         1 GUQ       0.297800
     37 O1           7.0270     1.3430     7.1740 o          1 GUQ      -0.592500
     38 O            9.1010     1.0930     4.3370 os         1 GUQ      -0.307900
@<TRIPOS>BOND
     1     1     2 ar  
     2     1     5 ar  
     3     1    24 1   
     4     2     3 ar  
     5     2    25 1   
     6     3    11 ar  
     7     3    21 1   
     8     4     5 ar  
     9     4    11 ar  
    10     4    26 1   
    11     5    27 1   
    12     6     9 1   
    13     6    19 1   
    14     6    28 1   
    15     7    29 1   
    16     7    30 1   
    17     7    31 1   
    18     7    38 1   
    19     8    12 ar  
    20     8    16 ar  
    21     8    38 1   
    22     9    17 1   
    23     9    37 2   
    24    10    20 1   
    25    10    21 2   
    26    10    23 1   
    27    11    23 1   
    28    12    13 ar  
    29    12    32 1   
    30    13    14 ar  
    31    13    33 1   
    32    14    15 ar  
    33    14    34 1   
    34    15    16 ar  
    35    15    35 1   
    36    16    17 1   
    37    17    18 2   
    38    18    19 1   
    39    18    20 1   
    40    19    22 2   
    41    20    36 1   
@<TRIPOS>SUBSTRUCTURE
     1 GUQ         1 TEMP              0 ****  ****    0 ROOT
