@<TRIPOS>MOLECULE
molecule
   38    41     1     0     0
SMALL
bcc


@<TRIPOS>ATOM
      1 C14          0.0000     0.0000     0.0000 ca         1 GUQ      -0.119000
      2 C13          1.3720     0.0000     0.0000 ca         1 GUQ      -0.090000
      3 C12          2.0870     0.0000     1.2180 ca         1 GUQ       0.161400
      4 C16         -0.0310     0.0110     2.3940 ca         1 GUQ      -0.078000
      5 C15         -0.7070     0.0050     1.1940 ca         1 GUQ      -0.133000
      6 N            5.6840    -0.3920     6.5620 ns         1 GUQ      -0.587500
      7 C           10.4980     1.1380     4.0410 c3         1 GUQ       0.128700
      8 C1           8.3560     2.1630     3.9590 ca         1 GUQ       0.169100
      9 C10          6.4100     0.7170     6.3360 c          1 GUQ       0.709700
     10 C11          3.8520    -0.0000     2.6280 cc         1 GUQ       0.659100
     11 C17          1.3620     0.0000     2.4140 ca         1 GUQ      -0.066100
     12 C2           8.9520     3.2340     3.3130 ca         1 GUQ      -0.223000
     13 C3           8.1920     4.3220     2.9290 ca         1 GUQ      -0.073000
     14 C4           6.8320     4.3520     3.1860 ca         1 GUQ      -0.167000
     15 C5           6.2220     3.2950     3.8270 ca         1 GUQ      -0.058000
     16 C6           6.9770     2.1870     4.2160 ca         1 GUQ      -0.086800
     17 C7           6.3290     1.0480     4.8990 cd         1 GUQ      -0.080400
     18 C8           5.5370     0.0910     4.3240 cc         1 GUQ       0.059800
     19 C9           5.1370    -0.8290     5.4140 c          1 GUQ       0.687700
     20 N1           5.1830    -0.0010     2.9900 nu         1 GUQ      -0.684000
     21 N2           3.4190    -0.0010     1.4130 nd         1 GUQ      -0.655100
     22 O2           4.4300    -1.8080     5.2920 o          1 GUQ      -0.552500
     23 S            2.5030     0.0040     3.7560 ss         1 GUQ      -0.126100
     24 H10         -0.5370    -0.0040    -0.9410 ha         1 GUQ       0.135000
     25 H9           1.9100    -0.0040    -0.9400 ha         1 GUQ       0.144000
     26 H12         -0.5840     0.0150     3.3250 ha         1 GUQ       0.135000
     27 H11         -1.7900     0.0050     1.1830 ha         1 GUQ       0.135000
     28 H7           5.5710    -0.8310     7.4540 hn         1 GUQ       0.360500
     29 H           10.9440     1.9940     4.5330 h1         1 GUQ       0.044700
     30 H1          10.6240     1.2320     2.9690 h1         1 GUQ       0.044700
     31 H2          10.9820     0.2320     4.3840 h1         1 GUQ       0.044700
     32 H3          10.0160     3.2180     3.1090 ha         1 GUQ       0.140000
     33 H4           8.6640     5.1570     2.4250 ha         1 GUQ       0.134000
     34 H5           6.2450     5.2100     2.8830 ha         1 GUQ       0.138000
     35 H6           5.1570     3.3220     4.0240 ha         1 GUQ       0.143000
     36 H8           5.8920    -0.1010     2.2910 hn         1 GUQ       0.481800
     37 O1           7.0270     1.3430     7.1740 o          1 GUQ      -0.552500
     38 O            9.1010     1.0930     4.3370 os         1 GUQ      -0.326900
@<TRIPOS>BOND
     1     5     4 ar
     2     5     1 ar
     3     4    11 ar
     4     1     2 ar
     5    11    23 1
     6    11     3 ar
     7    23    10 1
     8     2     3 ar
     9     3    21 1
    10    10    21 2
    11    10    20 1
    12     7    38 1
    13    20    18 1
    14    12    13 ar
    15    12     8 ar
    16    38     8 1
    17    13    14 ar
    18     8    16 ar
    19    18    17 2
    20    18    19 1
    21    14    15 ar
    22    16    15 ar
    23    16    17 1
    24    22    19 2
    25    17     9 1
    26    19     6 1
    27     9     6 1
    28     9    37 2
    29     1    24 1
    30     2    25 1
    31     4    26 1
    32     5    27 1
    33     6    28 1
    34     7    29 1
    35     7    30 1
    36     7    31 1
    37    12    32 1
    38    13    33 1
    39    14    34 1
    40    15    35 1
    41    20    36 1
@<TRIPOS>SUBSTRUCTURE
     1 GUQ         1 TEMP              0 ****  ****    0 ROOT
