@<TRIPOS>MOLECULE
molecule
   32    32     1     0     0
SMALL
bcc


@<TRIPOS>ATOM
      1 C            0.0000     0.0000     0.0000 c          1 GUS       0.899600
      2 N            1.9960     1.1970    -0.6900 n2         1 GUS      -0.467900
      3 O           -0.6710    -1.0030     0.5860 o          1 GUS      -0.818300
      4 CA           1.5070     0.0000     0.0000 c3         1 GUS      -0.010500
      5 CB           2.0170     0.0000     1.4430 c3         1 GUS      -0.099100
      6 NAA          6.3380     1.2940    -4.4720 n2         1 GUS      -0.762100
      7 CAB          6.1770     2.1160    -5.4700 c2         1 GUS       0.670100
      8 CAD          4.4920     3.2920    -4.2200 ca         1 GUS       0.045600
      9 CAE          4.1500     4.5530    -3.7450 ca         1 GUS      -0.112000
     10 CAF          3.3550     4.6820    -2.6230 ca         1 GUS      -0.214000
     11 NAG          6.8860     1.9320    -6.6340 nz         1 GUS      -0.807600
     12 CAH          4.0340     2.1570    -3.5720 ca         1 GUS      -0.090000
     13 CAI          3.2320     2.2810    -2.4370 ca         1 GUS      -0.088900
     14 CAJ          2.8950     3.5560    -1.9610 ca         1 GUS       0.189100
     15 OAK          2.1150     3.6860    -0.8570 oh         1 GUS      -0.402100
     16 CAL          2.7400     1.0770    -1.7420 ce         1 GUS       0.351800
     17 OXT         -0.6040     0.9070    -0.5230 o          1 GUS      -0.818300
     18 HA           1.8680    -0.8840    -0.5110 h1         1 GUS       0.015700
     19 HB           2.4040    -0.9000     0.9800 hc         1 GUS       0.055033
     20 HBA          1.2530    -0.1700     2.1920 hc         1 GUS       0.055033
     21 HBB          2.7630     0.7550     1.6580 hc         1 GUS       0.055033
     22 HNAA         6.9770     0.5280    -4.5510 hn         1 GUS       0.426400
     23 HNAC         5.2170     3.8340    -6.1030 hn         1 GUS       0.450800
     24 HAE          4.5070     5.4380    -4.2580 ha         1 GUS       0.120000
     25 HAF          3.0940     5.6680    -2.2570 ha         1 GUS       0.144000
     26 HNAG         7.4250     2.7530    -6.8300 hn         1 GUS       0.460133
     27 HNAB         6.2510     1.7630    -7.3890 hn         1 GUS       0.460133
     28 HAH          4.2980     1.1750    -3.9450 ha         1 GUS       0.146000
     29 HOAK         2.2450     4.5400    -0.4780 ho         1 GUS       0.410000
     30 HAL          3.0010     0.0930    -2.1130 h4         1 GUS      -0.033200
     31 HAG3         7.5110     1.1580    -6.5260 hn         1 GUS       0.460133
     32 NAC          5.2980     3.1700    -5.3590 nu         1 GUS      -0.688600
@<TRIPOS>BOND
     1     1     3 1
     2     1     4 1
     3     1    17 1
     4     2     4 1
     5     2    16 2
     6     4     5 1
     7     6     7 2
     8     7    32 1
     9     7    11 1
    10    32     8 1
    11     8     9 ar
    12     8    12 ar
    13     9    10 ar
    14    10    14 ar
    15    12    13 ar
    16    13    14 ar
    17    13    16 1
    18    14    15 1
    19     4    18 1
    20     5    19 1
    21     5    20 1
    22     5    21 1
    23     6    22 1
    24    32    23 1
    25     9    24 1
    26    10    25 1
    27    11    26 1
    28    11    27 1
    29    12    28 1
    30    15    29 1
    31    16    30 1
    32    31    11 1
@<TRIPOS>SUBSTRUCTURE
     1 GUS         1 TEMP              0 ****  ****    0 ROOT
