@<TRIPOS>MOLECULE
GUS
   32    33     1     0     0
SMALL
bcc


@<TRIPOS>ATOM
      1 C            0.0000     0.0000     0.0000 c2         1 GUS       0.402000
      2 N            1.9960     1.1970    -0.6900 n2         1 GUS       0.170000
      3 O           -0.6710    -1.0030     0.5860 o          1 GUS      -0.591000
      4 CA           1.5070     0.0000     0.0000 c3         1 GUS      -0.137000
      5 CB           2.0170     0.0000     1.4430 c3         1 GUS      -0.139000
      6 NAA          6.3380     1.2940    -4.4720 n2         1 GUS      -0.128000
      7 CAB          6.1770     2.1160    -5.4700 c2         1 GUS      -0.386000
      8 CAD          4.4920     3.2920    -4.2200 c2         1 GUS      -0.195000
      9 CAE          4.1500     4.5530    -3.7450 c2         1 GUS      -0.083000
     10 CAF          3.3550     4.6820    -2.6230 c2         1 GUS      -0.171000
     11 NAG          6.8860     1.9320    -6.6340 nz         1 GUS       0.963000
     12 CAH          4.0340     2.1570    -3.5720 c2         1 GUS      -0.117000
     13 CAI          3.2320     2.2810    -2.4370 c3         1 GUS      -0.094000
     14 CAJ          2.8950     3.5560    -1.9610 c2         1 GUS       0.108000
     15 OAK          2.1150     3.6860    -0.8570 oh         1 GUS      -0.166000
     16 CAL          2.7400     1.0770    -1.7420 c2         1 GUS      -0.438000
     17 OXT         -0.6040     0.9070    -0.5230 o          1 GUS      -0.591000
     18 HA           1.8680    -0.8840    -0.5110 h1         1 GUS       0.082000
     19 HB           2.4040    -0.9000     0.9800 hc         1 GUS       0.071000
     20 HBA          1.2530    -0.1700     2.1920 hc         1 GUS       0.071000
     21 HBB          2.7630     0.7550     1.6580 hc         1 GUS       0.071000
     22 HNAA         5.8230     1.4270    -3.6240 hn         1 GUS       0.193000
     23 HNAC         5.2100     3.8280    -6.1080 hn         1 GUS       0.075000
     24 HAE          4.5070     5.4380    -4.2580 ha         1 GUS       0.101000
     25 HAF          3.0940     5.6680    -2.2570 ha         1 GUS       0.119000
     26 HNAG         7.4960     2.7130    -6.7810 hn         1 GUS       0.010333
     27 HNAB         6.2510     1.8570    -7.4040 hn         1 GUS       0.010333
     28 HAH          4.2980     1.1750    -3.9450 ha         1 GUS       0.134000
     29 HOAK         2.3420     4.4810    -0.4030 ho         1 GUS       0.201000
     30 HAL          2.1430     1.6830    -2.4130 DU         1 GUS       0.266000
     31 HAG3         7.3810     1.0630    -6.5900 hn         1 GUS       0.010333
     32 NAC          5.2980     3.1700    -5.3590 n7         1 GUS       0.178000
@<TRIPOS>BOND
     1     1     3 1   
     2     1     4 1   
     3     1    17 1   
     4     2     4 1   
     5     2    16 1   
     6     4     5 1   
     7     4    18 1   
     8     5    19 1   
     9     5    20 1   
    10     5    21 1   
    11     6     7 1   
    12     6    22 1   
    13     7    11 1   
    14     7    32 1   
    15     8     9 1   
    16     8    12 1   
    17     8    32 1   
    18     9    10 1   
    19     9    24 1   
    20    10    14 1   
    21    10    25 1   
    22    11    26 1   
    23    11    27 1   
    24    11    31 1   
    25    12    13 1   
    26    12    28 1   
    27    13    14 1   
    28    13    16 1   
    29    13    30 1   
    30    14    15 1   
    31    15    29 1   
    32    16    30 1   
    33    23    32 1   
@<TRIPOS>SUBSTRUCTURE
     1 GUS         1 TEMP              0 ****  ****    0 ROOT
