@<TRIPOS>MOLECULE
molecule
   83    88     1     0     0
SMALL
bcc


@<TRIPOS>ATOM
      1 CAV          0.0000     0.0000     0.0000 c3         1 GV0       0.115800
      2 CAZ          1.5300     0.0000     0.0000 c3         1 GV0       0.163300
      3 NAI          2.0190     0.0000     1.3850 n3         1 GV0      -0.720600
      4 CBC          1.6380    -1.2380     2.0780 c3         1 GV0       0.140100
      5 CBA          1.5310     1.1810     2.1120 c3         1 GV0       0.163300
      6 CAW          0.0000     1.1810     2.1130 c3         1 GV0       0.115800
      7 NAG         -0.4870     1.1800     0.7270 n3         1 GV0      -0.721600
      8 CAQ         -1.9530     1.2560     0.6850 c3         1 GV0       0.173500
      9 CAU         -2.4220     2.4960     1.4500 c3         1 GV0      -0.098900
     10 CAY         -3.9530     2.5540     1.4340 c3         1 GV0       0.113000
     11 CAT         -2.4180     1.3480    -0.7700 c3         1 GV0      -0.098900
     12 CAX         -3.9490     1.3920    -0.8110 c3         1 GV0       0.113000
     13 NAH         -4.4130     2.4950     0.0410 n          1 GV0      -0.502800
     14 CBB         -5.2470     3.4360    -0.4470 c          1 GV0       0.792100
     15 OAE         -5.6960     4.2920     0.2910 o          1 GV0      -0.645100
     16 NAL         -5.5820     3.4280    -1.7520 ns         1 GV0      -0.560400
     17 CBJ         -6.3770     4.4480    -2.2750 ca         1 GV0       0.590200
     18 CBQ         -6.4570     5.6630    -1.6120 ca         1 GV0      -0.285300
     19 NAM         -7.0450     4.2460    -3.4000 nb         1 GV0      -0.765000
     20 CBT         -7.8110     5.1810    -3.9320 ca         1 GV0       0.477200
     21 CBS         -7.9440     6.4140    -3.3290 ca         1 GV0      -0.362300
     22 CBR         -7.2540     6.6710    -2.1440 ca         1 GV0       0.179100
     23 OAF         -7.3580     7.8750    -1.5260 os         1 GV0      -0.233200
     24 CBO         -8.0860     8.8460    -2.1390 ca         1 GV0       0.108100
     25 CBK         -9.4720     8.8120    -2.0850 ca         1 GV0      -0.164000
     26 CBF        -10.2110     9.8000    -2.7070 ca         1 GV0       0.097900
     27 FAA        -11.5610     9.7670    -2.6560 f          1 GV0      -0.141900
     28 CBL         -7.4420     9.8730    -2.8120 ca         1 GV0      -0.123000
     29 CBG         -8.1800    10.8610    -3.4360 ca         1 GV0      -0.108000
     30 CBD         -9.5660    10.8270    -3.3870 ca         1 GV0       0.014600
     31 NAJ        -10.3150    11.8290    -4.0190 ns         1 GV0      -0.477100
     32 CAR         -9.7790    12.5310    -5.0370 c          1 GV0       0.695100
     33 OAC         -8.6820    12.2370    -5.4650 o          1 GV0      -0.573100
     34 CAN        -10.5400    13.6820    -5.6430 cx         1 GV0      -0.324000
     35 CAO        -11.3810    13.3940    -6.8890 cx         1 GV0      -0.075900
     36 CAP        -10.0810    14.1900    -7.0110 cx         1 GV0      -0.075900
     37 CAS        -11.0700    14.6980    -4.6640 c          1 GV0       0.697100
     38 OAD        -11.1250    15.8680    -4.9770 o          1 GV0      -0.577100
     39 NAK        -11.4820    14.3060    -3.4430 ns         1 GV0      -0.481100
     40 CBE        -12.0750    15.2300    -2.5740 ca         1 GV0       0.039600
     41 CBH        -12.8500    16.2640    -3.0830 ca         1 GV0      -0.121000
     42 CBM        -13.4340    17.1750    -2.2240 ca         1 GV0      -0.147500
     43 CBP        -13.2470    17.0580    -0.8580 ca         1 GV0       0.117900
     44 FAB        -13.8190    17.9490    -0.0190 f          1 GV0      -0.140900
     45 CBN        -12.4750    16.0260    -0.3480 ca         1 GV0      -0.147500
     46 CBI        -11.8940    15.1100    -1.2020 ca         1 GV0      -0.121000
     47 H1          -0.3600    -0.8980     0.4880 h1         1 GV0       0.039200
     48 H2          -0.3600     0.0320    -1.0210 h1         1 GV0       0.039200
     49 H3           1.8900     0.8860    -0.5090 h1         1 GV0       0.062700
     50 H4           1.8900    -0.8860    -0.5090 h1         1 GV0       0.062700
     51 H6           0.7720    -1.6730     1.5920 h1         1 GV0       0.034033
     52 H7           1.3980    -1.0160     3.1110 h1         1 GV0       0.034033
     53 H8           2.4620    -1.9410     2.0420 h1         1 GV0       0.034033
     54 H9           1.8910     2.0790     1.6240 h1         1 GV0       0.062700
     55 H10          1.8920     1.1500     3.1340 h1         1 GV0       0.062700
     56 H11         -0.3600     2.0670     2.6210 h1         1 GV0       0.039200
     57 H12         -0.3600     0.2940     2.6210 h1         1 GV0       0.039200
     58 H14         -2.3780     0.3710     1.1420 h1         1 GV0       0.024700
     59 H15         -2.0740     2.4400     2.4750 hc         1 GV0       0.061200
     60 H16         -2.0230     3.3850     0.9750 hc         1 GV0       0.061200
     61 H17         -4.2850     3.4800     1.8870 h1         1 GV0       0.056450
     62 H18         -4.3520     1.7100     1.9830 h1         1 GV0       0.056450
     63 H19         -2.0680     0.4800    -1.3160 hc         1 GV0       0.061200
     64 H20         -2.0200     2.2490    -1.2200 hc         1 GV0       0.061200
     65 H21         -4.3480     0.4550    -0.4410 h1         1 GV0       0.056450
     66 H22         -4.2790     1.5570    -1.8300 h1         1 GV0       0.056450
     67 H23         -5.2810     2.6770    -2.3410 hn         1 GV0       0.335500
     68 H24         -5.9060     5.8260    -0.6940 ha         1 GV0       0.203000
     69 H25         -8.3430     4.9760    -4.8530 h4         1 GV0       0.026100
     70 H26         -8.5740     7.1750    -3.7720 ha         1 GV0       0.149000
     71 H27         -9.9720     8.0470    -1.5030 ha         1 GV0       0.167000
     72 H28         -6.3590     9.9010    -2.8510 ha         1 GV0       0.158000
     73 H29         -7.6760    11.6620    -3.9630 ha         1 GV0       0.189000
     74 H30        -11.2780    11.9560    -3.7800 hn         1 GV0       0.335500
     75 H31        -12.2930    13.9710    -6.9810 hc         1 GV0       0.096950
     76 H32        -11.3420    12.3750    -7.2550 hc         1 GV0       0.096950
     77 H33         -9.2460    13.6580    -7.4510 hc         1 GV0       0.096950
     78 H34        -10.1980    15.2540    -7.1780 hc         1 GV0       0.096950
     79 H35        -11.2690    13.3840    -3.1180 hn         1 GV0       0.327500
     80 H36        -12.9970    16.3570    -4.1520 ha         1 GV0       0.150500
     81 H37        -14.0380    17.9820    -2.6210 ha         1 GV0       0.149500
     82 H38        -12.3320    15.9350     0.7220 ha         1 GV0       0.149500
     83 H39        -11.2900    14.3040    -0.8040 ha         1 GV0       0.150500
@<TRIPOS>BOND
     1     1     2 1
     2     1     7 1
     3     2     3 1
     4     7     6 1
     5     7     8 1
     6     3     4 1
     7     3     5 1
     8     6     5 1
     9     8     9 1
    10     8    11 1
    11     9    10 1
    12    11    12 1
    13    10    13 1
    14    13    12 1
    15    13    14 1
    16    15    14 2
    17    14    16 1
    18    16    17 1
    19    18    17 ar
    20    18    22 ar
    21    17    19 ar
    22    23    22 1
    23    23    24 1
    24    22    21 ar
    25    19    20 ar
    26    24    28 ar
    27    24    25 ar
    28    28    29 ar
    29    21    20 ar
    30    25    26 ar
    31    29    30 ar
    32    26    30 ar
    33    26    27 1
    34    30    31 1
    35    33    32 2
    36    31    32 1
    37    32    34 1
    38    35    34 1
    39    35    36 1
    40    34    36 1
    41    34    37 1
    42    38    37 2
    43    37    39 1
    44    39    40 1
    45    40    46 ar
    46    40    41 ar
    47    46    45 ar
    48    41    42 ar
    49    45    43 ar
    50    42    43 ar
    51    43    44 1
    52     1    47 1
    53     1    48 1
    54     2    49 1
    55     2    50 1
    56     4    51 1
    57     4    52 1
    58     4    53 1
    59     5    54 1
    60     5    55 1
    61     6    56 1
    62     6    57 1
    63     8    58 1
    64     9    59 1
    65     9    60 1
    66    10    61 1
    67    10    62 1
    68    11    63 1
    69    11    64 1
    70    12    65 1
    71    12    66 1
    72    16    67 1
    73    18    68 1
    74    20    69 1
    75    21    70 1
    76    25    71 1
    77    28    72 1
    78    29    73 1
    79    31    74 1
    80    35    75 1
    81    35    76 1
    82    36    77 1
    83    36    78 1
    84    39    79 1
    85    41    80 1
    86    42    81 1
    87    45    82 1
    88    46    83 1
@<TRIPOS>SUBSTRUCTURE
     1 GV0         1 TEMP              0 ****  ****    0 ROOT
