@<TRIPOS>MOLECULE
GV0
   83    88     1     0     0
SMALL
bcc


@<TRIPOS>ATOM
      1 CAV          0.0000     0.0000     0.0000 c3         1 GV0       0.097800
      2 CAZ          1.5300     0.0000     0.0000 c3         1 GV0       0.158800
      3 NAI          2.0190     0.0000     1.3850 n3         1 GV0      -0.541600
      4 CBC          1.6380    -1.2380     2.0780 c3         1 GV0       0.164100
      5 CBA          1.5310     1.1810     2.1120 c3         1 GV0       0.158800
      6 CAW          0.0000     1.1810     2.1130 c3         1 GV0       0.097800
      7 NAG         -0.4870     1.1800     0.7270 n3         1 GV0      -0.526600
      8 CAQ         -1.9530     1.2560     0.6850 c3         1 GV0       0.131500
      9 CAU         -2.4220     2.4960     1.4500 c3         1 GV0      -0.054400
     10 CAY         -3.9530     2.5540     1.4340 c3         1 GV0       0.058000
     11 CAT         -2.4180     1.3480    -0.7700 c3         1 GV0      -0.054400
     12 CAX         -3.9490     1.3920    -0.8110 c3         1 GV0       0.058000
     13 NAH         -4.4130     2.4950     0.0410 n          1 GV0      -0.171800
     14 CBB         -5.2470     3.4360    -0.4470 c          1 GV0       0.588100
     15 OAE         -5.6960     4.2920     0.2910 o          1 GV0      -0.693100
     16 NAL         -5.5820     3.4280    -1.7520 ns         1 GV0      -0.132400
     17 CBJ         -6.3770     4.4480    -2.2750 ca         1 GV0       0.405200
     18 CBQ         -6.4570     5.6630    -1.6120 ca         1 GV0      -0.285300
     19 NAM         -7.0450     4.2460    -3.4000 nb         1 GV0      -0.655000
     20 CBT         -7.8110     5.1810    -3.9320 ca         1 GV0       0.467200
     21 CBS         -7.9440     6.4140    -3.3290 ca         1 GV0      -0.351300
     22 CBR         -7.2540     6.6710    -2.1440 ca         1 GV0       0.191100
     23 OAF         -7.3580     7.8750    -1.5260 os         1 GV0      -0.208200
     24 CBO         -8.0860     8.8460    -2.1390 ca         1 GV0       0.117100
     25 CBK         -9.4720     8.8120    -2.0850 ca         1 GV0      -0.137000
     26 CBF        -10.2110     9.8000    -2.7070 ca         1 GV0       0.074900
     27 FAA        -11.5610     9.7670    -2.6560 f          1 GV0      -0.126900
     28 CBL         -7.4420     9.8730    -2.8120 ca         1 GV0      -0.097000
     29 CBG         -8.1800    10.8610    -3.4360 ca         1 GV0      -0.086000
     30 CBD         -9.5660    10.8270    -3.3870 ca         1 GV0      -0.125400
     31 NAJ        -10.3150    11.8290    -4.0190 ns         1 GV0      -0.043100
     32 CAR         -9.7790    12.5310    -5.0370 c          1 GV0       0.607100
     33 OAC         -8.6820    12.2370    -5.4650 o          1 GV0      -0.609100
     34 CAN        -10.5400    13.6820    -5.6430 cx         1 GV0      -0.339000
     35 CAO        -11.3810    13.3940    -6.8890 cx         1 GV0      -0.015900
     36 CAP        -10.0810    14.1900    -7.0110 cx         1 GV0      -0.015900
     37 CAS        -11.0700    14.6980    -4.6640 c          1 GV0       0.612100
     38 OAD        -11.1250    15.8680    -4.9770 o          1 GV0      -0.615100
     39 NAK        -11.4820    14.3060    -3.4430 ns         1 GV0      -0.063100
     40 CBE        -12.0750    15.2300    -2.5740 ca         1 GV0      -0.099400
     41 CBH        -12.8500    16.2640    -3.0830 ca         1 GV0      -0.093000
     42 CBM        -13.4340    17.1750    -2.2240 ca         1 GV0      -0.110500
     43 CBP        -13.2470    17.0580    -0.8580 ca         1 GV0       0.092900
     44 FAB        -13.8190    17.9490    -0.0190 f          1 GV0      -0.127900
     45 CBN        -12.4750    16.0260    -0.3480 ca         1 GV0      -0.110500
     46 CBI        -11.8940    15.1100    -1.2020 ca         1 GV0      -0.093000
     47 H1          -0.3600    -0.8980     0.4880 h1         1 GV0       0.021700
     48 H2          -0.3600     0.0320    -1.0210 h1         1 GV0       0.021700
     49 H3           1.8900     0.8860    -0.5090 h1         1 GV0       0.029950
     50 H4           1.8900    -0.8860    -0.5090 h1         1 GV0       0.029950
     51 H6           0.7720    -1.6730     1.5920 h1         1 GV0       0.006033
     52 H7           1.3980    -1.0160     3.1110 h1         1 GV0       0.006033
     53 H8           2.4620    -1.9410     2.0420 h1         1 GV0       0.006033
     54 H9           1.8910     2.0790     1.6240 h1         1 GV0       0.029950
     55 H10          1.8920     1.1500     3.1340 h1         1 GV0       0.029950
     56 H11         -0.3600     2.0670     2.6210 h1         1 GV0       0.021700
     57 H12         -0.3600     0.2940     2.6210 h1         1 GV0       0.021700
     58 H14         -2.3780     0.3710     1.1420 h1         1 GV0       0.011700
     59 H15         -2.0740     2.4400     2.4750 hc         1 GV0       0.034700
     60 H16         -2.0230     3.3850     0.9750 hc         1 GV0       0.034700
     61 H17         -4.2850     3.4800     1.8870 h1         1 GV0       0.029200
     62 H18         -4.3520     1.7100     1.9830 h1         1 GV0       0.029200
     63 H19         -2.0680     0.4800    -1.3160 hc         1 GV0       0.034700
     64 H20         -2.0200     2.2490    -1.2200 hc         1 GV0       0.034700
     65 H21         -4.3480     0.4550    -0.4410 h1         1 GV0       0.029200
     66 H22         -4.2790     1.5570    -1.8300 h1         1 GV0       0.029200
     67 H23         -5.2810     2.6770    -2.3410 hn         1 GV0       0.181500
     68 H24         -5.9060     5.8260    -0.6940 ha         1 GV0       0.191000
     69 H25         -8.3430     4.9760    -4.8530 h4         1 GV0      -0.021900
     70 H26         -8.5740     7.1750    -3.7720 ha         1 GV0       0.133000
     71 H27         -9.9720     8.0470    -1.5030 ha         1 GV0       0.138000
     72 H28         -6.3590     9.9010    -2.8510 ha         1 GV0       0.125000
     73 H29         -7.6760    11.6620    -3.9630 ha         1 GV0       0.166000
     74 H30        -11.2780    11.9560    -3.7800 hn         1 GV0       0.186500
     75 H31        -12.2930    13.9710    -6.9810 hc         1 GV0       0.060700
     76 H32        -11.3420    12.3750    -7.2550 hc         1 GV0       0.060700
     77 H33         -9.2460    13.6580    -7.4510 hc         1 GV0       0.060700
     78 H34        -10.1980    15.2540    -7.1780 hc         1 GV0       0.060700
     79 H35        -11.2690    13.3840    -3.1180 hn         1 GV0       0.178500
     80 H36        -12.9970    16.3570    -4.1520 ha         1 GV0       0.125000
     81 H37        -14.0380    17.9820    -2.6210 ha         1 GV0       0.120500
     82 H38        -12.3320    15.9350     0.7220 ha         1 GV0       0.120500
     83 H39        -11.2900    14.3040    -0.8040 ha         1 GV0       0.125000
@<TRIPOS>BOND
     1     1     2 1   
     2     1     7 1   
     3     1    47 1   
     4     1    48 1   
     5     2     3 1   
     6     2    49 1   
     7     2    50 1   
     8     3     4 1   
     9     3     5 1   
    10     4    51 1   
    11     4    52 1   
    12     4    53 1   
    13     5     6 1   
    14     5    54 1   
    15     5    55 1   
    16     6     7 1   
    17     6    56 1   
    18     6    57 1   
    19     7     8 1   
    20     8     9 1   
    21     8    11 1   
    22     8    58 1   
    23     9    10 1   
    24     9    59 1   
    25     9    60 1   
    26    10    13 1   
    27    10    61 1   
    28    10    62 1   
    29    11    12 1   
    30    11    63 1   
    31    11    64 1   
    32    12    13 1   
    33    12    65 1   
    34    12    66 1   
    35    13    14 1   
    36    14    15 2   
    37    14    16 1   
    38    16    17 1   
    39    16    67 1   
    40    17    18 ar  
    41    17    19 ar  
    42    18    22 ar  
    43    18    68 1   
    44    19    20 ar  
    45    20    21 ar  
    46    20    69 1   
    47    21    22 ar  
    48    21    70 1   
    49    22    23 1   
    50    23    24 1   
    51    24    25 ar  
    52    24    28 ar  
    53    25    26 ar  
    54    25    71 1   
    55    26    27 1   
    56    26    30 ar  
    57    28    29 ar  
    58    28    72 1   
    59    29    30 ar  
    60    29    73 1   
    61    30    31 1   
    62    31    32 1   
    63    31    74 1   
    64    32    33 2   
    65    32    34 1   
    66    34    35 1   
    67    34    36 1   
    68    34    37 1   
    69    35    36 1   
    70    35    75 1   
    71    35    76 1   
    72    36    77 1   
    73    36    78 1   
    74    37    38 2   
    75    37    39 1   
    76    39    40 1   
    77    39    79 1   
    78    40    41 ar  
    79    40    46 ar  
    80    41    42 ar  
    81    41    80 1   
    82    42    43 ar  
    83    42    81 1   
    84    43    44 1   
    85    43    45 ar  
    86    45    46 ar  
    87    45    82 1   
    88    46    83 1   
@<TRIPOS>SUBSTRUCTURE
     1 GV0         1 TEMP              0 ****  ****    0 ROOT
