@<TRIPOS>MOLECULE
molecule
   27    28     1     0     0
SMALL
bcc


@<TRIPOS>ATOM
      1 N1           0.0000     0.0000     0.0000 nb         1 GV1      -0.785000
      2 N3           2.0270     0.0010    -1.1920 nh         1 GV1      -0.724300
      3 C4           1.2400     0.0010     2.4070 ca         1 GV1       0.509600
      4 C5           2.0100     0.0000     1.2420 ca         1 GV1      -0.293400
      5 C6           1.3240     0.0000     0.0000 ca         1 GV1       0.678200
      6 C7          -0.6840     0.0000     1.1300 ca         1 GV1       0.694900
      7 C8           1.7270    -1.2020    -1.9800 c3         1 GV1       0.157100
      8 C10          5.1420     0.0020     3.3550 c3         1 GV1      -0.016900
      9 C1           4.4810     0.0010     0.4500 c3         1 GV1      -0.025900
     10 C2           3.4320     0.0010     1.5310 cc         1 GV1      -0.055400
     11 C3           3.7350     0.0010     2.8150 cd         1 GV1      -0.057600
     12 S1           2.2930     0.0010     3.8130 ss         1 GV1      -0.139900
     13 N2          -0.0970    -0.0000     2.3030 nb         1 GV1      -0.714000
     14 C9           1.7520     1.2190    -1.9640 c3         1 GV1       0.157100
     15 H1          -1.7670     0.0000     1.0870 h5         1 GV1       0.062100
     16 H2           1.8050    -2.0770    -1.3470 h1         1 GV1       0.043367
     17 H3           0.7210    -1.1320    -2.3760 h1         1 GV1       0.043367
     18 H4           2.4320    -1.2830    -2.7980 h1         1 GV1       0.043367
     19 H5           5.6620    -0.8840     3.0110 hc         1 GV1       0.050033
     20 H6           5.1130     0.0060     4.4380 hc         1 GV1       0.050033
     21 H7           5.6630     0.8850     3.0050 hc         1 GV1       0.050033
     22 H8           4.3760     0.8940    -0.1550 hc         1 GV1       0.047700
     23 H9           5.4650    -0.0150     0.9010 hc         1 GV1       0.047700
     24 H10          4.3560    -0.8750    -0.1750 hc         1 GV1       0.047700
     25 H11          0.7480     1.1740    -2.3660 h1         1 GV1       0.043367
     26 H12          1.8440     2.0840    -1.3180 h1         1 GV1       0.043367
     27 H13          2.4630     1.2990    -2.7770 h1         1 GV1       0.043367
@<TRIPOS>BOND
     1     8    11 1
     2    11    12 1
     3    11    10 2
     4    12     3 1
     5    10     9 1
     6    10     4 1
     7     3     4 ar
     8     3    13 ar
     9     4     5 ar
    10    13     6 ar
    11     5     2 1
    12     5     1 ar
    13     6     1 ar
    14    14     2 1
    15     2     7 1
    16     6    15 1
    17     7    16 1
    18     7    17 1
    19     7    18 1
    20     8    19 1
    21     8    20 1
    22     8    21 1
    23     9    22 1
    24     9    23 1
    25     9    24 1
    26    14    25 1
    27    14    26 1
    28    14    27 1
@<TRIPOS>SUBSTRUCTURE
     1 GV1         1 TEMP              0 ****  ****    0 ROOT
