@<TRIPOS>MOLECULE
GV1
   27    28     1     0     0
SMALL
bcc


@<TRIPOS>ATOM
      1 N1           0.0000     0.0000     0.0000 nb         1 GV1      -0.663000
      2 N3           2.0270     0.0010    -1.1920 nh         1 GV1      -0.524300
      3 C4           1.2400     0.0010     2.4070 ca         1 GV1       0.508600
      4 C5           2.0100     0.0000     1.2420 ca         1 GV1      -0.279400
      5 C6           1.3240     0.0000     0.0000 ca         1 GV1       0.561200
      6 C7          -0.6840     0.0000     1.1300 ca         1 GV1       0.636900
      7 C8           1.7270    -1.2020    -1.9800 c3         1 GV1       0.183600
      8 C10          5.1420     0.0020     3.3550 c3         1 GV1       0.101100
      9 C1           4.4810     0.0010     0.4500 c3         1 GV1       0.067100
     10 C2           3.4320     0.0010     1.5310 cc         1 GV1      -0.055400
     11 C3           3.7350     0.0010     2.8150 cd         1 GV1      -0.010600
     12 S1           2.2930     0.0010     3.8130 ss         1 GV1      -0.276900
     13 N2          -0.0970    -0.0000     2.3030 nb         1 GV1      -0.580000
     14 C9           1.7520     1.2190    -1.9640 c3         1 GV1       0.183600
     15 H1          -1.7670     0.0000     1.0870 h5         1 GV1       0.002100
     16 H2           1.8050    -2.0770    -1.3470 h1         1 GV1       0.008700
     17 H3           0.7210    -1.1320    -2.3760 h1         1 GV1       0.008700
     18 H4           2.4320    -1.2830    -2.7980 h1         1 GV1       0.008700
     19 H5           5.6620    -0.8840     3.0110 hc         1 GV1       0.014367
     20 H6           5.1130     0.0060     4.4380 hc         1 GV1       0.014367
     21 H7           5.6630     0.8850     3.0050 hc         1 GV1       0.014367
     22 H8           4.3760     0.8940    -0.1550 hc         1 GV1       0.016367
     23 H9           5.4650    -0.0150     0.9010 hc         1 GV1       0.016367
     24 H10          4.3560    -0.8750    -0.1750 hc         1 GV1       0.016367
     25 H11          0.7480     1.1740    -2.3660 h1         1 GV1       0.008700
     26 H12          1.8440     2.0840    -1.3180 h1         1 GV1       0.008700
     27 H13          2.4630     1.2990    -2.7770 h1         1 GV1       0.008700
@<TRIPOS>BOND
     1     1     5 ar  
     2     1     6 ar  
     3     2     5 1   
     4     2     7 1   
     5     2    14 1   
     6     3     4 ar  
     7     3    12 1   
     8     3    13 ar  
     9     4     5 ar  
    10     4    10 1   
    11     6    13 ar  
    12     6    15 1   
    13     7    16 1   
    14     7    17 1   
    15     7    18 1   
    16     8    11 1   
    17     8    19 1   
    18     8    20 1   
    19     8    21 1   
    20     9    10 1   
    21     9    22 1   
    22     9    23 1   
    23     9    24 1   
    24    10    11 2   
    25    11    12 1   
    26    14    25 1   
    27    14    26 1   
    28    14    27 1   
@<TRIPOS>SUBSTRUCTURE
     1 GV1         1 TEMP              0 ****  ****    0 ROOT
