@<TRIPOS>MOLECULE
molecule
   62    67     1     0     0
SMALL
bcc


@<TRIPOS>ATOM
      1 CBF          0.0000     0.0000     0.0000 c3         1 GV2      -0.133900
      2 CBG          1.5310     0.0000     0.0000 c3         1 GV2       0.140400
      3 OBH          2.0070     0.0000     1.3480 os         1 GV2      -0.422600
      4 CBI          1.6080    -1.1420     2.1070 c3         1 GV2       0.140400
      5 CBJ          0.0790    -1.1880     2.1920 c3         1 GV2      -0.133900
      6 CBE         -0.5020    -1.2210     0.7750 c3         1 GV2       0.118700
      7 NBD         -1.9650    -1.1890     0.8460 ns         1 GV2      -0.577900
      8 CBB         -2.6580    -2.3340     1.0080 c          1 GV2       0.671700
      9 OBC         -2.0680    -3.3930     1.0950 o          1 GV2      -0.588100
     10 CAW         -4.1330    -2.3010     1.0780 ca         1 GV2      -0.115600
     11 CAX         -4.8300    -1.0890     1.0270 ca         1 GV2      -0.229300
     12 CAY         -6.2080    -1.1050     1.0950 ca         1 GV2       0.415200
     13 NAZ         -6.8720    -2.2380     1.2090 nb         1 GV2      -0.669000
     14 CBA         -6.2650    -3.4040     1.2630 ca         1 GV2       0.410200
     15 CAV         -4.8780    -3.4880     1.1950 ca         1 GV2       0.072300
     16 NAQ         -4.2410    -4.7220     1.2510 nu         1 GV2      -0.686000
     17 CAA         -3.6860    -5.1660     2.4520 ca         1 GV2       0.235600
     18 CAB         -2.9460    -6.3520     2.4740 ca         1 GV2      -0.152000
     19 CAF         -3.8710    -4.4270     3.6020 ca         1 GV2      -0.264300
     20 CAE         -3.3170    -4.8670     4.8140 ca         1 GV2       0.348300
     21 NAM         -3.4850    -4.1650     5.9420 nb         1 GV2      -0.658000
     22 CAN         -2.9560    -4.6000     7.0640 ca         1 GV2       0.310900
     23 CAO         -2.2220    -5.7850     7.0930 ca         1 GV2       0.272900
     24 NAP         -2.0440    -6.4910     5.9980 nb         1 GV2      -0.622000
     25 CAD         -2.5710    -6.0720     4.8470 ca         1 GV2       0.267300
     26 CAC         -2.3900    -6.8120     3.6510 cp         1 GV2      -0.024300
     27 CAG         -1.6090    -8.0690     3.6640 cp         1 GV2      -0.019000
     28 CAH         -2.1390    -9.2190     3.0880 ca         1 GV2      -0.130000
     29 CAI         -1.4040   -10.3970     3.1030 ca         1 GV2      -0.042200
     30 NAT         -1.6440   -11.6680     2.6290 na         1 GV2      -0.076400
     31 CAU         -2.8620   -12.0900     1.9320 c3         1 GV2       0.041600
     32 CAS         -0.5760   -12.4760     2.9050 cc         1 GV2      -0.099100
     33 CAR          0.3730   -11.7770     3.5510 cd         1 GV2      -0.203200
     34 CAJ         -0.1290   -10.4110     3.7000 ca         1 GV2      -0.095800
     35 CAK          0.3890    -9.2460     4.2760 ca         1 GV2      -0.087000
     36 CAL         -0.3380    -8.0940     4.2520 ca         1 GV2      -0.111000
     37 H1          -0.3610    -0.0470    -1.0200 hc         1 GV2       0.058700
     38 H2          -0.3610     0.9040     0.4760 hc         1 GV2       0.058700
     39 H3           1.8910     0.8860    -0.5090 h1         1 GV2       0.051200
     40 H4           1.8910    -0.8860    -0.5090 h1         1 GV2       0.051200
     41 H5           1.9680    -2.0410     1.6210 h1         1 GV2       0.051200
     42 H6           2.0220    -1.0740     3.1050 h1         1 GV2       0.051200
     43 H7          -0.2800    -0.3070     2.7100 hc         1 GV2       0.058700
     44 H8          -0.2260    -2.0790     2.7280 hc         1 GV2       0.058700
     45 H9          -0.1780    -2.1250     0.2730 h1         1 GV2       0.080700
     46 H10         -2.4510    -0.3180     0.7600 hn         1 GV2       0.314500
     47 H11         -4.2950    -0.1520     0.9340 ha         1 GV2       0.137000
     48 H12         -6.7540    -0.1700     1.0560 h4         1 GV2       0.029100
     49 H13         -6.8530    -4.3100     1.3540 h4         1 GV2       0.037100
     50 H14         -4.2160    -5.3090     0.4410 hn         1 GV2       0.456800
     51 H15         -2.8080    -6.9150     1.5590 ha         1 GV2       0.143000
     52 H16         -4.4850    -3.5350     3.5790 ha         1 GV2       0.151000
     53 H17         -3.0930    -4.0310     7.9760 h4         1 GV2       0.026100
     54 H18         -1.7940    -6.1270     8.0270 h4         1 GV2       0.027100
     55 H19         -3.1600    -9.2230     2.7280 ha         1 GV2       0.126000
     56 H20         -3.7230   -11.8890     2.5570 h1         1 GV2       0.047033
     57 H21         -2.9540   -11.5430     1.0020 h1         1 GV2       0.047033
     58 H22         -2.8080   -13.1520     1.7230 h1         1 GV2       0.047033
     59 H23         -0.5050   -13.5240     2.6410 h4         1 GV2       0.162000
     60 H24          1.3280   -12.1540     3.8950 ha         1 GV2       0.153000
     61 H25          1.3720    -9.2580     4.7320 ha         1 GV2       0.131000
     62 H26          0.0740    -7.1890     4.6810 ha         1 GV2       0.141000
@<TRIPOS>BOND
     1    13    12 ar
     2    13    14 ar
     3    12    11 ar
     4    14    15 ar
     5    11    10 ar
     6    15    10 ar
     7    15    16 1
     8    10     8 1
     9    16    17 1
    10     8     7 1
    11     8     9 2
    12    19    17 ar
    13    19    20 ar
    14     7     6 1
    15    17    18 ar
    16    21    20 ar
    17    21    22 ar
    18    20    25 ar
    19    22    23 ar
    20    18    26 ar
    21     1     6 1
    22     1     2 1
    23    25    26 ar
    24    25    24 ar
    25    23    24 ar
    26    26    27 1
    27    36    27 ar
    28    36    35 ar
    29     6     5 1
    30    27    28 ar
    31     5     4 1
    32    35    34 ar
    33     2     3 1
    34     3     4 1
    35    28    29 ar
    36    34    29 ar
    37    34    33 1
    38    29    30 1
    39    33    32 2
    40    30    32 1
    41    30    31 1
    42     1    37 1
    43     1    38 1
    44     2    39 1
    45     2    40 1
    46     4    41 1
    47     4    42 1
    48     5    43 1
    49     5    44 1
    50     6    45 1
    51     7    46 1
    52    11    47 1
    53    12    48 1
    54    14    49 1
    55    16    50 1
    56    18    51 1
    57    19    52 1
    58    22    53 1
    59    23    54 1
    60    28    55 1
    61    31    56 1
    62    31    57 1
    63    31    58 1
    64    32    59 1
    65    33    60 1
    66    35    61 1
    67    36    62 1
@<TRIPOS>SUBSTRUCTURE
     1 GV2         1 TEMP              0 ****  ****    0 ROOT
