@<TRIPOS>MOLECULE
GV2
   62    67     1     0     0
SMALL
bcc


@<TRIPOS>ATOM
      1 CBF          0.0000     0.0000     0.0000 c3         1 GV2      -0.083900
      2 CBG          1.5310     0.0000     0.0000 c3         1 GV2       0.220900
      3 OBH          2.0070     0.0000     1.3480 os         1 GV2      -0.409600
      4 CBI          1.6080    -1.1420     2.1070 c3         1 GV2       0.220900
      5 CBJ          0.0790    -1.1880     2.1920 c3         1 GV2      -0.083900
      6 CBE         -0.5020    -1.2210     0.7750 c3         1 GV2       0.021700
      7 NBD         -1.9650    -1.1890     0.8460 ns         1 GV2      -0.186900
      8 CBB         -2.6580    -2.3340     1.0080 c          1 GV2       0.594700
      9 OBC         -2.0680    -3.3930     1.0950 o          1 GV2      -0.638100
     10 CAW         -4.1330    -2.3010     1.0780 ca         1 GV2      -0.122600
     11 CAX         -4.8300    -1.0890     1.0270 ca         1 GV2      -0.200300
     12 CAY         -6.2080    -1.1050     1.0950 ca         1 GV2       0.404200
     13 NAZ         -6.8720    -2.2380     1.2090 nb         1 GV2      -0.557000
     14 CBA         -6.2650    -3.4040     1.2630 ca         1 GV2       0.394200
     15 CAV         -4.8780    -3.4880     1.1950 ca         1 GV2      -0.060700
     16 NAQ         -4.2410    -4.7220     1.2510 nu         1 GV2      -0.232000
     17 CAA         -3.6860    -5.1660     2.4520 ca         1 GV2       0.092600
     18 CAB         -2.9460    -6.3520     2.4740 ca         1 GV2      -0.134000
     19 CAF         -3.8710    -4.4270     3.6020 ca         1 GV2      -0.262300
     20 CAE         -3.3170    -4.8670     4.8140 ca         1 GV2       0.319300
     21 NAM         -3.4850    -4.1650     5.9420 nb         1 GV2      -0.564000
     22 CAN         -2.9560    -4.6000     7.0640 ca         1 GV2       0.301900
     23 CAO         -2.2220    -5.7850     7.0930 ca         1 GV2       0.249900
     24 NAP         -2.0440    -6.4910     5.9980 nb         1 GV2      -0.511000
     25 CAD         -2.5710    -6.0720     4.8470 ca         1 GV2       0.224300
     26 CAC         -2.3900    -6.8120     3.6510 cp         1 GV2      -0.018300
     27 CAG         -1.6090    -8.0690     3.6640 cp         1 GV2      -0.019000
     28 CAH         -2.1390    -9.2190     3.0880 ca         1 GV2      -0.097000
     29 CAI         -1.4040   -10.3970     3.1030 ca         1 GV2      -0.213200
     30 NAT         -1.6440   -11.6680     2.6290 na         1 GV2       0.388600
     31 CAU         -2.8620   -12.0900     1.9320 c3         1 GV2      -0.004400
     32 CAS         -0.5760   -12.4760     2.9050 cc         1 GV2      -0.255100
     33 CAR          0.3730   -11.7770     3.5510 cd         1 GV2      -0.165200
     34 CAJ         -0.1290   -10.4110     3.7000 ca         1 GV2      -0.097800
     35 CAK          0.3890    -9.2460     4.2760 ca         1 GV2      -0.050000
     36 CAL         -0.3380    -8.0940     4.2520 ca         1 GV2      -0.094000
     37 H1          -0.3610    -0.0470    -1.0200 hc         1 GV2       0.030200
     38 H2          -0.3610     0.9040     0.4760 hc         1 GV2       0.030200
     39 H3           1.8910     0.8860    -0.5090 h1         1 GV2       0.010950
     40 H4           1.8910    -0.8860    -0.5090 h1         1 GV2       0.010950
     41 H5           1.9680    -2.0410     1.6210 h1         1 GV2       0.010950
     42 H6           2.0220    -1.0740     3.1050 h1         1 GV2       0.010950
     43 H7          -0.2800    -0.3070     2.7100 hc         1 GV2       0.030200
     44 H8          -0.2260    -2.0790     2.7280 hc         1 GV2       0.030200
     45 H9          -0.1780    -2.1250     0.2730 h1         1 GV2       0.059700
     46 H10         -2.4510    -0.3180     0.7600 hn         1 GV2       0.178500
     47 H11         -4.2950    -0.1520     0.9340 ha         1 GV2       0.114000
     48 H12         -6.7540    -0.1700     1.0560 h4         1 GV2      -0.015900
     49 H13         -6.8530    -4.3100     1.3540 h4         1 GV2      -0.009900
     50 H14         -4.2160    -5.3090     0.4410 hn         1 GV2       0.292800
     51 H15         -2.8080    -6.9150     1.5590 ha         1 GV2       0.117000
     52 H16         -4.4850    -3.5350     3.5790 ha         1 GV2       0.129000
     53 H17         -3.0930    -4.0310     7.9760 h4         1 GV2      -0.017900
     54 H18         -1.7940    -6.1270     8.0270 h4         1 GV2      -0.013900
     55 H19         -3.1600    -9.2230     2.7280 ha         1 GV2       0.102000
     56 H20         -3.7230   -11.8890     2.5570 h1         1 GV2       0.016033
     57 H21         -2.9540   -11.5430     1.0020 h1         1 GV2       0.016033
     58 H22         -2.8080   -13.1520     1.7230 h1         1 GV2       0.016033
     59 H23         -0.5050   -13.5240     2.6410 h4         1 GV2       0.137000
     60 H24          1.3280   -12.1540     3.8950 ha         1 GV2       0.128000
     61 H25          1.3720    -9.2580     4.7320 ha         1 GV2       0.101000
     62 H26          0.0740    -7.1890     4.6810 ha         1 GV2       0.113000
@<TRIPOS>BOND
     1     1     2 1   
     2     1     6 1   
     3     1    37 1   
     4     1    38 1   
     5     2     3 1   
     6     2    39 1   
     7     2    40 1   
     8     3     4 1   
     9     4     5 1   
    10     4    41 1   
    11     4    42 1   
    12     5     6 1   
    13     5    43 1   
    14     5    44 1   
    15     6     7 1   
    16     6    45 1   
    17     7     8 1   
    18     7    46 1   
    19     8     9 2   
    20     8    10 1   
    21    10    11 ar  
    22    10    15 ar  
    23    11    12 ar  
    24    11    47 1   
    25    12    13 ar  
    26    12    48 1   
    27    13    14 ar  
    28    14    15 ar  
    29    14    49 1   
    30    15    16 1   
    31    16    17 1   
    32    16    50 1   
    33    17    18 ar  
    34    17    19 ar  
    35    18    26 ar  
    36    18    51 1   
    37    19    20 ar  
    38    19    52 1   
    39    20    21 ar  
    40    20    25 ar  
    41    21    22 ar  
    42    22    23 ar  
    43    22    53 1   
    44    23    24 ar  
    45    23    54 1   
    46    24    25 ar  
    47    25    26 ar  
    48    26    27 1   
    49    27    28 ar  
    50    27    36 ar  
    51    28    29 ar  
    52    28    55 1   
    53    29    30 1   
    54    29    34 ar  
    55    30    31 1   
    56    30    32 1   
    57    31    56 1   
    58    31    57 1   
    59    31    58 1   
    60    32    33 2   
    61    32    59 1   
    62    33    34 1   
    63    33    60 1   
    64    34    35 ar  
    65    35    36 ar  
    66    35    61 1   
    67    36    62 1   
@<TRIPOS>SUBSTRUCTURE
     1 GV2         1 TEMP              0 ****  ****    0 ROOT
