@<TRIPOS>MOLECULE
molecule
   51    54     1     0     0
SMALL
bcc


@<TRIPOS>ATOM
      1 C10          0.0000     0.0000     0.0000 ca         1 GV5       0.201600
      2 C11          1.3860     0.0000     0.0000 ca         1 GV5      -0.191000
      3 C12          5.6930     2.6850     3.4780 ca         1 GV5       0.310900
      4 C13          4.2990     2.6960     3.4800 ca         1 GV5       0.292900
      5 C14          5.9060    -3.1750    -0.3760 ca         1 GV5       0.148300
      6 C15          6.4870    -4.0780    -1.2650 ca         1 GV5      -0.333500
      7 C16          6.0180    -5.3820    -1.2770 ca         1 GV5      -0.112300
      8 N1           6.3560     1.8140     2.7500 nb         1 GV5      -0.644000
      9 C17          4.9990    -5.7410    -0.4160 ca         1 GV5       0.353200
     10 C18          4.8890    -3.6140     0.4610 ca         1 GV5       0.343200
     11 C19          7.0080    -2.3620    -3.4490 c3         1 GV5      -0.236300
     12 S            7.7840    -3.5740    -2.3460 sy         1 GV5       1.195300
     13 O1           8.7250    -2.9390    -1.4910 o          1 GV5      -0.616800
     14 C20          0.0330    -0.0020    -2.4780 c3         1 GV5       0.233100
     15 C1           4.2600    -0.9120     0.4540 ca         1 GV5      -0.154000
     16 O            8.1230    -4.7540    -3.0610 o          1 GV5      -0.616800
     17 N3           4.4700    -4.8630     0.4130 nb         1 GV5      -0.616000
     18 C            5.6580    -0.9170     0.4540 ca         1 GV5       0.160600
     19 C5           6.3680    -0.0140     1.2160 ca         1 GV5      -0.200300
     20 C4           5.6860     0.9280     2.0030 ca         1 GV5       0.323300
     21 N2           3.6190     1.8320     2.7600 nb         1 GV5      -0.624000
     22 C3           4.2680     0.9400     2.0080 ca         1 GV5       0.289300
     23 C2           3.5610     0.0020     1.2170 cp         1 GV5      -0.032300
     24 C6           2.0790     0.0000     1.2090 cp         1 GV5      -0.006000
     25 N4          -0.6990    -0.0020    -1.2100 nh         1 GV5      -0.743000
     26 C21         -2.1640    -0.0030    -1.2090 c3         1 GV5       0.233100
     27 C9          -0.6940    -0.0060     1.2040 ca         1 GV5      -0.194000
     28 C8          -0.0070    -0.0050     2.4040 ca         1 GV5      -0.090000
     29 C7           1.3730     0.0000     2.4120 ca         1 GV5      -0.136000
     30 H1           1.9270     0.0820    -0.9350 ha         1 GV5       0.132000
     31 H2           6.2360     3.4050     4.0790 h4         1 GV5       0.033100
     32 H3           3.7690     3.4210     4.0870 h4         1 GV5       0.033100
     33 H4           6.4460    -6.1110    -1.9550 ha         1 GV5       0.166000
     34 H5           4.6280    -6.7590    -0.4230 h4         1 GV5       0.031100
     35 H6           4.4300    -2.9210     1.1560 h4         1 GV5       0.047100
     36 H7           7.3090    -1.3630    -3.1570 h1         1 GV5       0.103033
     37 H8           5.9300    -2.4490    -3.3810 h1         1 GV5       0.103033
     38 H9           7.3220    -2.5500    -4.4690 h1         1 GV5       0.103033
     39 H10         -0.6700     0.0260    -3.3010 h1         1 GV5       0.034200
     40 H11          0.6350    -0.9000    -2.5480 h1         1 GV5       0.034200
     41 H12          0.6770     0.8680    -2.5230 h1         1 GV5       0.034200
     42 H13          3.7210    -1.6270    -0.1560 ha         1 GV5       0.157000
     43 H14          7.1730    -1.5770    -0.8150 hn         1 GV5       0.463800
     44 H15          7.4510    -0.0300     1.2060 ha         1 GV5       0.163000
     45 H16         -2.5250     0.8820    -0.6980 h1         1 GV5       0.034200
     46 H17         -2.5240    -0.8870    -0.6980 h1         1 GV5       0.034200
     47 H18         -2.5260    -0.0030    -2.2300 h1         1 GV5       0.034200
     48 H19         -1.7780    -0.0090     1.2030 ha         1 GV5       0.131000
     49 H20         -0.5530    -0.0080     3.3390 ha         1 GV5       0.131000
     50 H21          1.9090     0.0010     3.3530 ha         1 GV5       0.139000
     51 N            6.3430    -1.8490    -0.3260 nu         1 GV5      -0.678000
@<TRIPOS>BOND
     1    17     9 ar
     2    17    10 ar
     3     9     7 ar
     4    10     5 ar
     5     7     6 ar
     6     5     6 ar
     7     5    51 1
     8     6    12 1
     9    51    18 1
    10    19    18 ar
    11    19    20 ar
    12    18    15 ar
    13    13    12 2
    14    16    12 2
    15     8    20 ar
    16     8     3 ar
    17    12    11 1
    18    20    22 ar
    19     3     4 ar
    20    15    23 ar
    21    22    23 ar
    22    22    21 ar
    23    23    24 1
    24    29    24 ar
    25    29    28 ar
    26     4    21 ar
    27    24     2 ar
    28    28    27 ar
    29     2     1 ar
    30    27     1 ar
    31     1    25 1
    32    25    14 1
    33    25    26 1
    34     2    30 1
    35     3    31 1
    36     4    32 1
    37     7    33 1
    38     9    34 1
    39    10    35 1
    40    11    36 1
    41    11    37 1
    42    11    38 1
    43    14    39 1
    44    14    40 1
    45    14    41 1
    46    15    42 1
    47    51    43 1
    48    19    44 1
    49    26    45 1
    50    26    46 1
    51    26    47 1
    52    27    48 1
    53    28    49 1
    54    29    50 1
@<TRIPOS>SUBSTRUCTURE
     1 GV5         1 TEMP              0 ****  ****    0 ROOT
