@<TRIPOS>MOLECULE
GV9
   18    18     1     0     0
SMALL
bcc


@<TRIPOS>ATOM
      1 O11          0.0000     0.0000     0.0000 o          1 GV9      -0.689100
      2 C10          1.2130     0.0000     0.0000 c          1 GV9       0.542100
      3 C12          1.9670     0.0000     1.3040 c3         1 GV9      -0.071100
      4 N9           1.8860    -0.0040    -1.1680 ns         1 GV9       0.016900
      5 C3           1.1920    -0.1240    -2.3730 cc         1 GV9      -0.130400
      6 C4          -0.1860    -0.1140    -2.4630 cc         1 GV9      -0.166000
      7 C5          -0.6730    -0.2390    -3.7010 cd         1 GV9      -0.086100
      8 S1           0.5820    -0.3790    -4.8460 ss         1 GV9      -0.227800
      9 C2           1.8090    -0.2570    -3.5950 cd         1 GV9      -0.002700
     10 C6           3.2070    -0.2930    -3.8090 c          1 GV9       1.003200
     11 O7           3.9700    -0.2010    -2.8650 o          1 GV9      -0.880300
     12 O8           3.6950    -0.4280    -5.0600 o          1 GV9      -0.880300
     13 H12          2.5590     0.9040     1.3790 hc         1 GV9       0.015700
     14 H12A         1.2640    -0.0400     2.1280 hc         1 GV9       0.015700
     15 H12B         2.6190    -0.8640     1.3440 hc         1 GV9       0.015700
     16 HN9          2.8810     0.0990    -1.1720 hn         1 GV9       0.222500
     17 H4          -0.8250    -0.0120    -1.5940 ha         1 GV9       0.176000
     18 H5          -1.7290    -0.2520    -3.9440 h4         1 GV9       0.129000
@<TRIPOS>BOND
     1     1     2 2   
     2     2     3 1   
     3     2     4 1   
     4     3    13 1   
     5     3    14 1   
     6     3    15 1   
     7     4     5 1   
     8     4    16 1   
     9     5     6 1   
    10     5     9 2   
    11     6     7 2   
    12     6    17 1   
    13     7     8 1   
    14     7    18 1   
    15     8     9 1   
    16     9    10 1   
    17    10    11 1   
    18    10    12 1   
@<TRIPOS>SUBSTRUCTURE
     1 GV9         1 TEMP              0 ****  ****    0 ROOT
