@<TRIPOS>MOLECULE
molecule
   18    18     1     0     0
SMALL
bcc


@<TRIPOS>ATOM
      1 O11          0.0000     0.0000     0.0000 o          1 GV9      -0.644100
      2 C10          1.2130     0.0000     0.0000 c          1 GV9       0.647100
      3 C12          1.9670     0.0000     1.3040 c3         1 GV9      -0.170100
      4 N9           1.8860    -0.0040    -1.1680 ns         1 GV9      -0.426100
      5 C3           1.1920    -0.1240    -2.3730 cc         1 GV9       0.017600
      6 C4          -0.1860    -0.1140    -2.4630 cc         1 GV9      -0.178000
      7 C5          -0.6730    -0.2390    -3.7010 cd         1 GV9      -0.168100
      8 S1           0.5820    -0.3790    -4.8460 ss         1 GV9      -0.086800
      9 C2           1.8090    -0.2570    -3.5950 cd         1 GV9      -0.070700
     10 C6           3.2070    -0.2930    -3.8090 c          1 GV9       0.910200
     11 O7           3.9700    -0.2010    -2.8650 o          1 GV9      -0.842300
     12 O8           3.6950    -0.4280    -5.0600 o          1 GV9      -0.842300
     13 H12          2.5590     0.9040     1.3790 hc         1 GV9       0.052700
     14 H12A         1.2640    -0.0400     2.1280 hc         1 GV9       0.052700
     15 H12B         2.6190    -0.8640     1.3440 hc         1 GV9       0.052700
     16 HN9          2.8810     0.0990    -1.1720 hn         1 GV9       0.369500
     17 H4          -0.8250    -0.0120    -1.5940 ha         1 GV9       0.184000
     18 H5          -1.7290    -0.2520    -3.9440 h4         1 GV9       0.144000
@<TRIPOS>BOND
     1     2     1 2
     2     3     2 1
     3     2     4 1
     4     3    13 1
     5     3    14 1
     6     3    15 1
     7     4     5 1
     8     4    16 1
     9     6     5 1
    10     5     9 2
    11     6     7 2
    12     6    17 1
    13     7     8 1
    14     7    18 1
    15     9     8 1
    16     9    10 1
    17    11    10 1
    18    10    12 1
@<TRIPOS>SUBSTRUCTURE
     1 GV9         1 TEMP              0 ****  ****    0 ROOT
