@<TRIPOS>MOLECULE
molecule
   24    23     1     0     0
SMALL
bcc


@<TRIPOS>ATOM
      1 OB           0.0000     0.0000     0.0000 o          1 GVA      -0.837800
      2 C            1.2240     0.0000     0.0000 c          1 GVA       0.893600
      3 OA           1.9700     0.0000     1.1330 o          1 GVA      -0.837800
      4 CA           2.0670    -0.0070    -1.2510 c3         1 GVA      -0.175400
      5 CB           1.2230     0.0450    -2.5220 c3         1 GVA      -0.063400
      6 CG           2.0780    -0.0320    -3.7930 c3         1 GVA      -0.095400
      7 CD           1.2430     0.0240    -5.0690 c3         1 GVA       0.205800
      8 NE           2.0380    -0.0820    -6.2620 nu         1 GVA      -0.853200
      9 CZ           1.5850    -0.1310    -7.5680 c2         1 GVA       0.706100
     10 NH2          0.2270    -0.0720    -7.7540 nz         1 GVA      -0.806600
     11 NH1          2.4140    -0.2290    -8.5740 n2         1 GVA      -0.804100
     12 HA1          2.7270     0.8510    -1.2330 hc         1 GVA       0.037700
     13 HA2          2.6650    -0.9100    -1.2640 hc         1 GVA       0.037700
     14 HB1          0.6620     0.9710    -2.5330 hc         1 GVA       0.045700
     15 HB2          0.5290    -0.7860    -2.5160 hc         1 GVA       0.045700
     16 HG1          2.6370    -0.9600    -3.7820 hc         1 GVA       0.053700
     17 HG2          2.7760     0.7960    -3.7960 hc         1 GVA       0.053700
     18 HD1          0.5280    -0.7890    -5.0540 h1         1 GVA       0.035700
     19 HD2          0.7040     0.9630    -5.0920 h1         1 GVA       0.035700
     20 HNE          3.0300    -0.1240    -6.1330 hn         1 GVA       0.493800
     21 HH21        -0.1270     0.7770    -7.3610 hn         1 GVA       0.466133
     22 HH22        -0.2060    -0.8550    -7.3040 hn         1 GVA       0.466133
     23 HNH1         2.0640    -0.2630    -9.5110 hn         1 GVA       0.431400
     24 HH23         0.0230    -0.0970    -8.7330 hn         1 GVA       0.466133
@<TRIPOS>BOND
     1     1     2 1
     2     2     3 1
     3     2     4 1
     4     4     5 1
     5     4    12 1
     6     4    13 1
     7     5     6 1
     8     5    14 1
     9     5    15 1
    10     6     7 1
    11     6    16 1
    12     6    17 1
    13     7     8 1
    14     7    18 1
    15     7    19 1
    16     8     9 1
    17     8    20 1
    18     9    10 1
    19     9    11 2
    20    10    21 1
    21    10    22 1
    22    11    23 1
    23    24    10 1
@<TRIPOS>SUBSTRUCTURE
     1 GVA         1 TEMP              0 ****  ****    0 ROOT
