@<TRIPOS>MOLECULE
molecule
   23    24     1     0     0
SMALL
bcc


@<TRIPOS>ATOM
      1 O5           0.0000     0.0000     0.0000 o          1 GVC      -0.810300
      2 C1           1.2490     0.0000     0.0000 c          1 GVC       0.773100
      3 C35          2.0950     0.0000     1.1540 cc         1 GVC       0.550500
      4 N10          1.5930    -0.0010     2.3910 nd         1 GVC      -0.513800
      5 N9           3.4580    -0.0000     1.0670 nc         1 GVC      -0.606000
      6 C34          3.8210    -0.0010     2.3280 cd         1 GVC       0.386800
      7 C36          5.2020    -0.0030     2.8490 c3         1 GVC      -0.123400
      8 N8           2.7170    -0.0010     3.1310 na         1 GVC      -0.006500
      9 C30          2.6710    -0.0020     4.5140 ca         1 GVC       0.073800
     10 C31          3.6920    -0.6060     5.2450 ca         1 GVC      -0.142000
     11 C32          3.6470    -0.6050     6.6390 ca         1 GVC       0.041900
     12 C33          2.5780    -0.0000     7.3020 ca         1 GVC      -0.149000
     13 Cl5          4.9080    -1.3500     7.5430 cl         1 GVC      -0.104900
     14 C29          1.6020     0.6030     5.1750 ca         1 GVC      -0.142000
     15 C28          1.5570     0.6040     6.5690 ca         1 GVC       0.041900
     16 Cl1          0.2380     1.3490     7.3860 cl         1 GVC      -0.104900
     17 OXT          1.9410     0.0010    -1.1820 o          1 GVC      -0.810300
     18 H361         5.4530    -0.9960     3.2030 hc         1 GVC       0.052033
     19 H362         5.8860     0.2820     2.0590 hc         1 GVC       0.052033
     20 H363         5.2810     0.7030     3.6670 hc         1 GVC       0.052033
     21 H31          4.5220    -1.0750     4.7310 ha         1 GVC       0.171500
     22 H29          0.8080     1.0730     4.6060 ha         1 GVC       0.171500
     23 H33          2.5420     0.0000     8.3840 ha         1 GVC       0.147000
@<TRIPOS>BOND
     1     1     2 1
     2     2     3 1
     3     3     4 2
     4     3     5 1
     5     5     6 2
     6     6     7 1
     7     4     8 1
     8     6     8 1
     9     8     9 1
    10     9    10 ar
    11    10    11 ar
    12    11    12 ar
    13    11    13 1
    14     9    14 ar
    15    12    15 ar
    16    14    15 ar
    17    15    16 1
    18     2    17 1
    19     7    18 1
    20     7    19 1
    21     7    20 1
    22    10    21 1
    23    14    22 1
    24    12    23 1
@<TRIPOS>SUBSTRUCTURE
     1 GVC         1 TEMP              0 ****  ****    0 ROOT
