@<TRIPOS>MOLECULE
GVC
   23    24     1     0     0
SMALL
bcc


@<TRIPOS>ATOM
      1 O5          0.7080    1.0780   -0.5440 o         1 GVC     -0.788800
      2 C1          1.2020   -0.0210   -0.2020 c         1 GVC      0.863100
      3 C35         2.0830    0.0060    1.0770 cc        1 GVC      0.526500
      4 N10         1.6250   -0.1430    2.3420 nd        1 GVC     -0.538800
      5 N9          3.4910    0.2030    1.0320 nc        1 GVC     -0.668000
      6 C34         3.8860    0.1630    2.3170 cd        1 GVC      0.407800
      7 C36         5.2670    0.3410    2.8240 c3        1 GVC     -0.123400
      8 N8          2.7320   -0.0670    3.1390 na        1 GVC     -0.040500
      9 C30         2.6730   -0.1000    4.5450 ca        1 GVC      0.093800
     10 C31         3.7310   -0.6530    5.3000 ca        1 GVC     -0.149500
     11 C32         3.6580   -0.6580    6.6920 ca        1 GVC      0.039400
     12 C33         2.5510   -0.1510    7.3720 ca        1 GVC     -0.158000
     13 CL5         4.9540   -1.3120    7.5880 cl        1 GVC     -0.107900
     14 C29         1.5370    0.4050    5.2250 ca        1 GVC     -0.149500
     15 C28         1.4960    0.3690    6.6160 ca        1 GVC      0.039400
     16 CL1         0.1280    0.9820    7.4270 cl        1 GVC     -0.107900
     17 OXT         1.0750   -1.1360   -0.7560 o         1 GVC     -0.788800
     18 H361        5.2690    0.8810    3.8030 hc        1 GVC      0.052367
     19 H362        5.7550   -0.6580    2.9550 hc        1 GVC      0.052367
     20 H363        5.8670    0.9320    2.0870 hc        1 GVC      0.052367
     21 H31         4.6040   -1.0980    4.7980 ha        1 GVC      0.171000
     22 H29         0.6860    0.8170    4.6550 ha        1 GVC      0.171000
     23 H33         2.5050   -0.1650    8.4700 ha        1 GVC      0.152000
@<TRIPOS>BOND
     1    1    2 1   
     2    2    3 1   
     3    2   17 1   
     4    3    4 2   
     5    3    5 1   
     6    4    8 1   
     7    5    6 2   
     8    6    7 1   
     9    6    8 1   
    10    7   18 1   
    11    7   19 1   
    12    7   20 1   
    13    8    9 1   
    14    9   10 ar  
    15    9   14 ar  
    16   10   11 ar  
    17   10   21 1   
    18   11   12 ar  
    19   11   13 1   
    20   12   15 ar  
    21   12   23 1   
    22   14   15 ar  
    23   14   22 1   
    24   15   16 1   
@<TRIPOS>SUBSTRUCTURE
     1 GVC         1 TEMP              0 ****  ****    0 ROOT
