@<TRIPOS>MOLECULE
molecule
   48    52     1     0     0
SMALL
bcc


@<TRIPOS>ATOM
      1 CAL          0.0000     0.0000     0.0000 cx         1 GVD      -0.123900
      2 CAM          1.5010     0.0000     0.0000 cx         1 GVD      -0.123900
      3 CBB          0.7500     0.0000     1.3080 cx         1 GVD      -0.081400
      4 CAX          0.7500    -1.2590     2.1640 cc         1 GVD      -0.037600
      5 CAK          1.8410    -1.9500     2.6340 cd         1 GVD      -0.361300
      6 NAS         -0.3440    -1.9340     2.6230 na         1 GVD      -0.011600
      7 NAN         -0.0440    -3.0170     3.3590 nc         1 GVD      -0.488800
      8 CAV          1.2640    -2.9910     3.3410 cd         1 GVD       0.576200
      9 NAR          2.0840    -3.9330     3.9830 nu         1 GVD      -0.878600
     10 C6           1.7930    -5.0800     4.7620 ca         1 GVD       0.729200
     11 N1           0.6490    -5.0550     5.4730 nb         1 GVD      -0.715000
     12 C5           2.6820    -6.1520     4.7580 ca         1 GVD      -0.308600
     13 CAJ          3.8710    -6.1540     4.0080 ca         1 GVD      -0.084000
     14 CAD          4.7160    -7.2590     4.0480 ca         1 GVD      -0.148000
     15 CAC          4.3760    -8.3550     4.8330 ca         1 GVD      -0.093000
     16 CAI          3.1920    -8.3440     5.5770 ca         1 GVD      -0.192300
     17 C4           2.3270    -7.2520     5.5550 ca         1 GVD       0.463600
     18 N3           1.1930    -7.2600     6.2780 nb         1 GVD      -0.736000
     19 C2           0.4220    -6.1610     6.1930 ca         1 GVD       0.861000
     20 NAQ         -0.7610    -6.1770     6.9480 ne         1 GVD      -0.606700
     21 CAU         -1.8030    -6.6530     6.3430 cf         1 GVD       0.549900
     22 CAG         -3.1310    -6.7390     7.0010 cf         1 GVD      -0.218100
     23 CAE         -4.1790    -7.2550     6.3480 c2         1 GVD      -0.146700
     24 NAA         -4.4850    -4.5650     4.0800 n1         1 GVD      -0.358800
     25 CAF         -2.7640    -7.6410     4.3170 c2         1 GVD      -0.146700
     26 CAH         -1.6980    -7.1300     4.9440 cf         1 GVD      -0.218100
     27 CA0         -5.1780    -7.0880     4.0770 c3         1 GVD       0.003700
     28 CAT         -4.1250    -7.7840     4.9410 c3         1 GVD      -0.005300
     29 HAL1        -0.4670    -0.9390    -0.2710 hc         1 GVD       0.080700
     30 HAL2        -0.4670     0.9390    -0.2710 hc         1 GVD       0.080700
     31 HAM1         1.9690     0.9390    -0.2710 hc         1 GVD       0.080700
     32 HAM2         1.9690    -0.9390    -0.2710 hc         1 GVD       0.080700
     33 HBB          0.7500     0.9560     1.8160 hc         1 GVD       0.094700
     34 HAK          2.6830    -1.4120     3.0520 ha         1 GVD       0.167000
     35 HAS         -1.2830    -1.6480     2.4290 hn         1 GVD       0.321700
     36 HAR          3.0630    -3.7610     3.8670 hn         1 GVD       0.441800
     37 HAJ          4.1290    -5.2960     3.3980 ha         1 GVD       0.132000
     38 HAD          5.6330    -7.2660     3.4710 ha         1 GVD       0.136000
     39 HAC          5.0290    -9.2180     4.8700 ha         1 GVD       0.137000
     40 HAI          2.9420    -9.2060     6.1830 ha         1 GVD       0.151000
     41 HAG         -3.2520    -6.3830     8.0170 ha         1 GVD       0.154000
     42 HAH         -0.7490    -7.0660     4.4240 ha         1 GVD       0.154000
     43 HAE         -5.1290    -7.2950     6.8680 ha         1 GVD       0.131500
     44 HAT         -4.3620    -8.8410     4.9770 hc         1 GVD       0.075700
     45 HA01        -6.1630    -7.2050     4.5110 hc         1 GVD       0.076700
     46 HA02        -5.1580    -7.4790     3.0670 hc         1 GVD       0.076700
     47 HAF         -2.6390    -7.9730     3.2940 ha         1 GVD       0.131500
     48 CAB         -4.7770    -5.6880     4.0890 c1         1 GVD       0.198700
@<TRIPOS>BOND
     1     1     2 1
     2     1     3 1
     3     2     3 1
     4     3     4 1
     5     4     5 2
     6     4     6 1
     7     6     7 1
     8     5     8 1
     9     7     8 2
    10     8     9 1
    11     9    10 1
    12    10    11 ar
    13    10    12 ar
    14    12    13 ar
    15    13    14 ar
    16    14    15 ar
    17    15    16 ar
    18    12    17 ar
    19    16    17 ar
    20    17    18 ar
    21    11    19 ar
    22    18    19 ar
    23    19    20 1
    24    20    21 2
    25    21    22 1
    26    22    23 2
    27    48    24 3
    28    21    26 1
    29    25    26 2
    30    48    27 1
    31    23    28 1
    32    25    28 1
    33    27    28 1
    34     1    29 1
    35     1    30 1
    36     2    31 1
    37     2    32 1
    38     3    33 1
    39     5    34 1
    40     6    35 1
    41     9    36 1
    42    13    37 1
    43    14    38 1
    44    15    39 1
    45    16    40 1
    46    22    41 1
    47    26    42 1
    48    23    43 1
    49    28    44 1
    50    27    45 1
    51    27    46 1
    52    25    47 1
@<TRIPOS>SUBSTRUCTURE
     1 GVD         1 TEMP              0 ****  ****    0 ROOT
