@<TRIPOS>MOLECULE
GVD
   48    52     1     0     0
SMALL
bcc


@<TRIPOS>ATOM
      1 CAL          0.0000     0.0000     0.0000 cx         1 GVD      -0.071400
      2 CAM          1.5010     0.0000     0.0000 cx         1 GVD      -0.071400
      3 CBB          0.7500     0.0000     1.3080 cx         1 GVD      -0.030400
      4 CAX          0.7500    -1.2590     2.1640 cc         1 GVD      -0.223600
      5 CAK          1.8410    -1.9500     2.6340 cd         1 GVD      -0.347300
      6 NAS         -0.3440    -1.9340     2.6230 na         1 GVD       0.517400
      7 NAN         -0.0440    -3.0170     3.3590 nc         1 GVD      -0.647800
      8 CAV          1.2640    -2.9910     3.3410 cd         1 GVD       0.440200
      9 NAR          2.0840    -3.9330     3.9830 nu         1 GVD      -0.420600
     10 C6           1.7930    -5.0800     4.7620 ca         1 GVD       0.551200
     11 N1           0.6490    -5.0550     5.4730 nb         1 GVD      -0.644000
     12 C5           2.6820    -6.1520     4.7580 ca         1 GVD      -0.304600
     13 CAJ          3.8710    -6.1540     4.0080 ca         1 GVD      -0.058000
     14 CAD          4.7160    -7.2590     4.0480 ca         1 GVD      -0.121000
     15 CAC          4.3760    -8.3550     4.8330 ca         1 GVD      -0.064000
     16 CAI          3.1920    -8.3440     5.5770 ca         1 GVD      -0.170300
     17 C4           2.3270    -7.2520     5.5550 ca         1 GVD       0.437600
     18 N3           1.1930    -7.2600     6.2780 nb         1 GVD      -0.671000
     19 C2           0.4220    -6.1610     6.1930 ca         1 GVD       0.777000
     20 NAQ         -0.7610    -6.1770     6.9480 ne         1 GVD      -0.510700
     21 CAU         -1.8030    -6.6530     6.3430 cf         1 GVD       0.496900
     22 CAG         -3.1310    -6.7390     7.0010 cf         1 GVD      -0.187600
     23 CAE         -4.1790    -7.2550     6.3480 c2         1 GVD      -0.137700
     24 NAA         -4.4850    -4.5650     4.0800 n1         1 GVD      -0.383800
     25 CAF         -2.7640    -7.6410     4.3170 c2         1 GVD      -0.137700
     26 CAH         -1.6980    -7.1300     4.9440 cf         1 GVD      -0.187600
     27 CA0         -5.1780    -7.0880     4.0770 c3         1 GVD       0.125700
     28 CAT         -4.1250    -7.7840     4.9410 c3         1 GVD       0.036700
     29 HAL1        -0.4670    -0.9390    -0.2710 hc         1 GVD       0.049700
     30 HAL2        -0.4670     0.9390    -0.2710 hc         1 GVD       0.049700
     31 HAM1         1.9690     0.9390    -0.2710 hc         1 GVD       0.049700
     32 HAM2         1.9690    -0.9390    -0.2710 hc         1 GVD       0.049700
     33 HBB          0.7500     0.9560     1.8160 hc         1 GVD       0.062700
     34 HAK          2.6830    -1.4120     3.0520 ha         1 GVD       0.150000
     35 HAS         -1.2830    -1.6480     2.4290 hn         1 GVD       0.135700
     36 HAR          3.0630    -3.7610     3.8670 hn         1 GVD       0.276800
     37 HAJ          4.1290    -5.2960     3.3980 ha         1 GVD       0.106000
     38 HAD          5.6330    -7.2660     3.4710 ha         1 GVD       0.108000
     39 HAC          5.0290    -9.2180     4.8700 ha         1 GVD       0.105000
     40 HAI          2.9420    -9.2060     6.1830 ha         1 GVD       0.120000
     41 HAG         -3.2520    -6.3830     8.0170 ha         1 GVD       0.121500
     42 HAH         -0.7490    -7.0660     4.4240 ha         1 GVD       0.121500
     43 HAE         -5.1290    -7.2950     6.8680 ha         1 GVD       0.103000
     44 HAT         -4.3620    -8.8410     4.9770 hc         1 GVD       0.041700
     45 HA01        -6.1630    -7.2050     4.5110 hc         1 GVD       0.034200
     46 HA02        -5.1580    -7.4790     3.0670 hc         1 GVD       0.034200
     47 HAF         -2.6390    -7.9730     3.2940 ha         1 GVD       0.103000
     48 CAB         -4.7770    -5.6880     4.0890 c1         1 GVD       0.186700
@<TRIPOS>BOND
     1     1     2 1   
     2     1     3 1   
     3     1    29 1   
     4     1    30 1   
     5     2     3 1   
     6     2    31 1   
     7     2    32 1   
     8     3     4 1   
     9     3    33 1   
    10     4     5 2   
    11     4     6 1   
    12     5     8 1   
    13     5    34 1   
    14     6     7 1   
    15     6    35 1   
    16     7     8 2   
    17     8     9 1   
    18     9    10 1   
    19     9    36 1   
    20    10    11 ar  
    21    10    12 ar  
    22    11    19 ar  
    23    12    13 ar  
    24    12    17 ar  
    25    13    14 ar  
    26    13    37 1   
    27    14    15 ar  
    28    14    38 1   
    29    15    16 ar  
    30    15    39 1   
    31    16    17 ar  
    32    16    40 1   
    33    17    18 ar  
    34    18    19 ar  
    35    19    20 1   
    36    20    21 2   
    37    21    22 1   
    38    21    26 1   
    39    22    23 2   
    40    22    41 1   
    41    23    28 1   
    42    23    43 1   
    43    24    48 3   
    44    25    26 2   
    45    25    28 1   
    46    25    47 1   
    47    26    42 1   
    48    27    28 1   
    49    27    45 1   
    50    27    46 1   
    51    27    48 1   
    52    28    44 1   
@<TRIPOS>SUBSTRUCTURE
     1 GVD         1 TEMP              0 ****  ****    0 ROOT
