@<TRIPOS>MOLECULE
molecule
   28    28     1     0     0
SMALL
bcc


@<TRIPOS>ATOM
      1 OAE          0.0000     0.0000     0.0000 o          1 GVF      -0.948333
      2 PAH          1.6180     0.0000     0.0000 p5         1 GVF       1.236400
      3 OAG          1.9790     0.0000     1.5780 o          1 GVF      -0.948333
      4 OAI          2.2680     1.1020    -0.7850 o          1 GVF      -0.948333
      5 OAM          2.0140    -1.5010    -0.4560 os         1 GVF      -0.438500
      6 CAL          1.7980    -2.0270    -1.6950 ca         1 GVF       0.167600
      7 CAP          0.9960    -3.1580    -1.8440 ca         1 GVF       0.167600
      8 OAQ          0.4280    -3.7400    -0.7500 os         1 GVF      -0.438500
      9 PAT          1.1040    -4.9090     0.1410 p5         1 GVF       1.236400
     10 OAS          2.3580    -4.1840     0.8600 o          1 GVF      -0.948333
     11 OAY          0.0470    -5.0900     1.3530 o          1 GVF      -0.948333
     12 OAU          1.4200    -6.1760    -0.6000 o          1 GVF      -0.948333
     13 CAO          0.7770    -3.6960    -3.1120 ca         1 GVF       0.130100
     14 OAR         -0.0040    -4.8000    -3.2710 os         1 GVF      -0.444000
     15 PAW         -0.3320    -5.5140    -4.6870 p5         1 GVF       1.257900
     16 OAV          1.0860    -6.1330    -5.1560 o          1 GVF      -0.966333
     17 OAZ         -1.1690    -6.8240    -4.2390 o          1 GVF      -0.966333
     18 OAX         -1.0290    -4.6470    -5.6950 o          1 GVF      -0.966333
     19 CAN          1.3590    -3.1010    -4.2310 ca         1 GVF      -0.264000
     20 CAJ          2.1600    -1.9700    -4.0830 ca         1 GVF      -0.264000
     21 CAK          2.3800    -1.4320    -2.8150 ca         1 GVF       0.130100
     22 OAF          3.1650    -0.3260    -2.6830 os         1 GVF      -0.444000
     23 PAC          3.8940     0.4490    -3.9020 p5         1 GVF       1.257900
     24 OAB          2.6740     1.1000    -4.7420 o          1 GVF      -0.966333
     25 OAA          4.5510     1.7320    -3.1660 o          1 GVF      -0.966333
     26 OAD          4.8640    -0.3740    -4.6980 o          1 GVF      -0.966333
     27 HAN          1.1890    -3.5180    -5.2160 ha         1 GVF       0.099000
     28 HAJ          2.6120    -1.5090    -4.9530 ha         1 GVF       0.099000
@<TRIPOS>BOND
     1     1     2 1
     2     2     3 1
     3     2     4 1
     4     2     5 1
     5     5     6 1
     6     6     7 ar
     7     7     8 1
     8     8     9 1
     9     9    10 1
    10     9    11 1
    11     9    12 1
    12     7    13 ar
    13    13    14 1
    14    14    15 1
    15    15    16 1
    16    15    17 1
    17    15    18 1
    18    13    19 ar
    19    19    20 ar
    20     6    21 ar
    21    20    21 ar
    22    21    22 1
    23    22    23 1
    24    23    24 1
    25    23    25 1
    26    23    26 1
    27    19    27 1
    28    20    28 1
@<TRIPOS>SUBSTRUCTURE
     1 GVF         1 TEMP              0 ****  ****    0 ROOT
