@<TRIPOS>MOLECULE
GVF
   28    28     1     0     0
SMALL
bcc


@<TRIPOS>ATOM
      1 OAE        -0.3170   -0.3360    1.0020 o         1 GVF     -0.974833
      2 PAH         0.7820    0.1930    0.0990 p5        1 GVF      1.412900
      3 OAG         1.7790    0.9530    0.9630 o         1 GVF     -0.974833
      4 OAI         0.1570    1.0780   -0.9580 o         1 GVF     -0.974833
      5 OAM         1.7280   -1.1230   -0.5800 os        1 GVF     -0.527500
      6 CAL         1.7600   -1.8280   -1.7340 ca        1 GVF      0.167100
      7 CAP         1.2160   -3.1830   -1.8000 ca        1 GVF      0.167100
      8 OAQ         0.9470   -3.8760   -0.6690 os        1 GVF     -0.527500
      9 PAT         1.6830   -5.1850    0.2430 p5        1 GVF      1.412900
     10 OAS         2.5120   -4.6460    1.3950 o         1 GVF     -0.974833
     11 OAY         0.4960   -5.9380    0.8270 o         1 GVF     -0.974833
     12 OAU         2.5600   -6.0800   -0.6080 o         1 GVF     -0.974833
     13 CAO         0.8190   -3.6960   -3.1100 ca        1 GVF      0.167100
     14 OAR        -0.0350   -4.7530   -3.2790 os        1 GVF     -0.535500
     15 PAW        -0.8900   -5.4180   -4.6350 p5        1 GVF      1.396900
     16 OAV         0.0530   -5.7000   -5.7930 o         1 GVF     -0.983167
     17 OAZ        -1.5030   -6.7280   -4.1560 o         1 GVF     -0.983167
     18 OAX        -2.0070   -4.4760   -5.0550 o         1 GVF     -0.983167
     19 CAN         1.3800   -3.0660   -4.2280 ca        1 GVF     -0.291000
     20 CAJ         2.2300   -1.9680   -4.1220 ca        1 GVF     -0.291000
     21 CAK         2.4830   -1.3270   -2.9030 ca        1 GVF      0.167100
     22 OAF         3.3520   -0.2710   -2.8550 os        1 GVF     -0.535500
     23 PAC         4.5300    0.3820   -3.9490 p5        1 GVF      1.396900
     24 OAB         3.9190    0.6530   -5.3150 o         1 GVF     -0.983167
     25 OAA         5.0000    1.6980   -3.3410 o         1 GVF     -0.983167
     26 OAD         5.7170   -0.5620   -4.0580 o         1 GVF     -0.983167
     27 HAN         1.1270   -3.4850   -5.2150 ha        1 GVF      0.085000
     28 HAJ         2.7290   -1.5590   -5.0140 ha        1 GVF      0.085000
@<TRIPOS>BOND
     1    1    2 1   
     2    2    3 1   
     3    2    4 1   
     4    2    5 1   
     5    5    6 1   
     6    6    7 ar  
     7    6   21 ar  
     8    7    8 1   
     9    7   13 ar  
    10    8    9 1   
    11    9   10 1   
    12    9   11 1   
    13    9   12 1   
    14   13   14 1   
    15   13   19 ar  
    16   14   15 1   
    17   15   16 1   
    18   15   17 1   
    19   15   18 1   
    20   19   20 ar  
    21   19   27 1   
    22   20   21 ar  
    23   20   28 1   
    24   21   22 1   
    25   22   23 1   
    26   23   24 1   
    27   23   25 1   
    28   23   26 1   
@<TRIPOS>SUBSTRUCTURE
     1 GVF         1 TEMP              0 ****  ****    0 ROOT
