@<TRIPOS>MOLECULE
molecule
   22    23     1     0     0
SMALL
bcc


@<TRIPOS>ATOM
      1 C1           0.0000     0.0000     0.0000 cc         1 GVG       0.307600
      2 C2          -0.8170    -0.0280    -1.2520 c3         1 GVG      -0.125400
      3 C3           1.4890     0.0000     0.0000 cc         1 GVG      -0.205300
      4 C6           2.4090     0.0130    -1.1070 ca         1 GVG      -0.012000
      5 C7           2.1890     0.7970    -2.3310 ca         1 GVG      -0.101500
      6 C8           2.9200    -1.2340    -1.2560 ca         1 GVG      -0.101500
      7 C9           2.4730     0.2960    -3.5450 ca         1 GVG      -0.140500
      8 C10          3.2290    -1.7760    -2.5690 ca         1 GVG      -0.140500
      9 C11          3.0110    -1.0430    -3.6720 ca         1 GVG      -0.118000
     10 C12          1.6940     0.0000     1.3220 cd         1 GVG      -0.126300
     11 N13          0.5230     0.0180     2.0090 na         1 GVG      -0.053600
     12 N3          -0.5510     0.0240     1.1900 nd         1 GVG      -0.479800
     13 H2C1        -0.4840    -0.8440    -1.8820 hc         1 GVG       0.049700
     14 H2C2        -0.6970     0.9090    -1.7820 hc         1 GVG       0.049700
     15 H2C3        -1.8610    -0.1690    -1.0000 hc         1 GVG       0.049700
     16 H12          2.5710     0.4840     1.7340 h4         1 GVG       0.167000
     17 H7           1.7870     1.8000    -2.2520 ha         1 GVG       0.132500
     18 H8           3.1030    -1.8390    -0.3770 ha         1 GVG       0.132500
     19 H9           2.2980     0.8940    -4.4310 ha         1 GVG       0.131500
     20 H10          3.6340    -2.7770    -2.6580 ha         1 GVG       0.131500
     21 H11          3.2400    -1.4480    -4.6500 ha         1 GVG       0.131000
     22 H13          0.4620     0.0270     3.0080 hn         1 GVG       0.320700
@<TRIPOS>BOND
     1     1     2 1
     2     1     3 1
     3     3     4 1
     4     4     5 ar
     5     4     6 ar
     6     5     7 ar
     7     6     8 ar
     8     7     9 ar
     9     8     9 ar
    10     3    10 2
    11    10    11 1
    12     1    12 2
    13    11    12 1
    14     2    13 1
    15     2    14 1
    16     2    15 1
    17    10    16 1
    18     5    17 1
    19     6    18 1
    20     7    19 1
    21     8    20 1
    22     9    21 1
    23    11    22 1
@<TRIPOS>SUBSTRUCTURE
     1 GVG         1 TEMP              0 ****  ****    0 ROOT
