@<TRIPOS>MOLECULE
GVG
   22    23     1     0     0
SMALL
bcc


@<TRIPOS>ATOM
      1 C1         -0.1370    0.2200    0.0530 cc        1 GVG      0.327600
      2 C2         -1.1260    0.4020   -1.0260 c3        1 GVG     -0.125400
      3 C3          1.2640   -0.1470   -0.1150 cc        1 GVG     -0.208300
      4 C6          1.9910   -0.4050   -1.3300 ca        1 GVG      0.008000
      5 C7          1.7220    0.3160   -2.5030 ca        1 GVG     -0.126000
      6 C8          2.9990   -1.3830   -1.3500 ca        1 GVG     -0.126000
      7 C9          2.4400    0.0590   -3.6690 ca        1 GVG     -0.128000
      8 C10         3.7140   -1.6360   -2.5180 ca        1 GVG     -0.128000
      9 C11         3.4360   -0.9170   -3.6810 ca        1 GVG     -0.133000
     10 C12         1.7730   -0.2090    1.1980 cd        1 GVG     -0.135300
     11 N13         0.7150    0.1110    2.0450 na        1 GVG     -0.016600
     12 N3         -0.4140    0.3630    1.3840 nd        1 GVG     -0.519800
     13 H2C1       -1.1170    1.4660   -1.3740 hc        1 GVG      0.052367
     14 H2C2       -0.8650   -0.2600   -1.8890 hc        1 GVG      0.052367
     15 H2C3       -2.1610    0.1550   -0.6820 hc        1 GVG      0.052367
     16 H12         2.7720   -0.4410    1.5640 h4        1 GVG      0.178000
     17 H7          0.9440    1.0940   -2.4970 ha        1 GVG      0.132500
     18 H8          3.2170   -1.9560   -0.4370 ha        1 GVG      0.132500
     19 H9          2.2200    0.6300   -4.5830 ha        1 GVG      0.130500
     20 H10         4.4990   -2.4060   -2.5230 ha        1 GVG      0.130500
     21 H11         4.0010   -1.1180   -4.6020 ha        1 GVG      0.131000
     22 H13         0.7360    0.1670    3.0350 hn        1 GVG      0.321700
@<TRIPOS>BOND
     1    1    2 1   
     2    1    3 1   
     3    1   12 2   
     4    2   13 1   
     5    2   14 1   
     6    2   15 1   
     7    3    4 1   
     8    3   10 2   
     9    4    5 ar  
    10    4    6 ar  
    11    5    7 ar  
    12    5   17 1   
    13    6    8 ar  
    14    6   18 1   
    15    7    9 ar  
    16    7   19 1   
    17    8    9 ar  
    18    8   20 1   
    19    9   21 1   
    20   10   11 1   
    21   10   16 1   
    22   11   12 1   
    23   11   22 1   
@<TRIPOS>SUBSTRUCTURE
     1 GVG         1 TEMP              0 ****  ****    0 ROOT
