@<TRIPOS>MOLECULE
GVH
   15    16     1     0     0
SMALL
bcc


@<TRIPOS>ATOM
      1 N1         -0.0640    0.0700    0.0220 nb        1 GVH     -0.671000
      2 C2          1.3020    0.0460   -0.0350 ca        1 GVH      0.419800
      3 C3          2.1750   -0.0290    1.1330 ca        1 GVH     -0.198100
      4 C4          1.5750   -0.0780    2.3930 ca        1 GVH     -0.047000
      5 C20         3.5260   -0.0320    0.6350 cc        1 GVH     -0.180200
      6 C5          0.1890   -0.0530    2.4560 ca        1 GVH     -0.277300
      7 C6         -0.5710    0.0200    1.2590 ca        1 GVH      0.412200
      8 N7          2.1210    0.0850   -1.1730 na        1 GVH     -0.289100
      9 C8          3.4530    0.0370   -0.7540 cd        1 GVH     -0.103100
     10 H6         -1.6750    0.0400    1.3100 h4        1 GVH      0.020100
     11 H7          1.8020    0.1360   -2.1040 hn        1 GVH      0.308700
     12 H4          2.1880   -0.1350    3.3030 ha        1 GVH      0.139000
     13 H20         4.4280   -0.0800    1.2370 ha        1 GVH      0.159000
     14 H5         -0.3330   -0.0900    3.4200 ha        1 GVH      0.141000
     15 H8          4.2600    0.0570   -1.4890 h4        1 GVH      0.168000
@<TRIPOS>BOND
     1    1    2 ar  
     2    1    7 ar  
     3    2    3 ar  
     4    2    8 1   
     5    3    4 ar  
     6    3    5 1   
     7    4    6 ar  
     8    4   12 1   
     9    5    9 2   
    10    5   13 1   
    11    6    7 ar  
    12    6   14 1   
    13    7   10 1   
    14    8    9 1   
    15    8   11 1   
    16    9   15 1   
@<TRIPOS>SUBSTRUCTURE
     1 GVH         1 TEMP              0 ****  ****    0 ROOT
