@<TRIPOS>MOLECULE
molecule
   15    16     1     0     0
SMALL
bcc


@<TRIPOS>ATOM
      1 N1           0.0000     0.0000     0.0000 nb         1 GVH      -0.670000
      2 C2           1.3460     0.0000     0.0000 ca         1 GVH       0.425800
      3 C3           2.1860     0.0000     1.1090 ca         1 GVH      -0.213100
      4 C4           1.5830    -0.0010     2.3770 ca         1 GVH      -0.039000
      5 C20          3.5180     0.0010     0.6160 cc         1 GVH      -0.189200
      6 C5           0.1900    -0.0010     2.4350 ca         1 GVH      -0.278300
      7 C6          -0.5270    -0.0000     1.2460 ca         1 GVH       0.416200
      8 N7           2.1310     0.0010    -1.1230 na         1 GVH      -0.285100
      9 C8           3.4530     0.0010    -0.7610 cd         1 GVH      -0.104100
     10 H6          -1.6080    -0.0000     1.3240 h4         1 GVH       0.014100
     11 H7           1.7910     0.0010    -2.0640 hn         1 GVH       0.306700
     12 H4           2.1800    -0.0010     3.2810 ha         1 GVH       0.139000
     13 H20          4.2830    -0.5760     1.1220 ha         1 GVH       0.157000
     14 H5          -0.3230    -0.0010     3.3890 ha         1 GVH       0.143000
     15 H8           4.1730     0.5700    -1.3370 h4         1 GVH       0.176000
@<TRIPOS>BOND
     1     1     2 ar
     2     2     3 ar
     3     3     4 ar
     4     3     5 1
     5     4     6 ar
     6     1     7 ar
     7     6     7 ar
     8     2     8 1
     9     5     9 2
    10     8     9 1
    11     7    10 1
    12     8    11 1
    13     4    12 1
    14     5    13 1
    15     6    14 1
    16     9    15 1
@<TRIPOS>SUBSTRUCTURE
     1 GVH         1 TEMP              0 ****  ****    0 ROOT
