@<TRIPOS>MOLECULE
molecule
   31    33     1     0     0
SMALL
bcc


@<TRIPOS>ATOM
      1 N1           0.0000     0.0000     0.0000 nb         1 GVI      -0.700000
      2 C2           1.3550     0.0000     0.0000 ca         1 GVI       0.644900
      3 N3           2.2020     0.0000     1.0520 nb         1 GVI      -0.685000
      4 C4           1.5170     0.0010     2.2060 ca         1 GVI       0.416800
      5 C5           0.1410     0.0020     2.3630 ca         1 GVI      -0.146200
      6 N7          -0.1960     0.0040     3.6930 nc         1 GVI      -0.539100
      7 C8           0.9550     0.0040     4.3340 cd         1 GVI       0.412700
      8 N9           2.0220     0.0040     3.4750 na         1 GVI      -0.372000
      9 C10         -4.8610     0.0080     1.2940 ca         1 GVI      -0.073300
     10 C11         -4.1610     1.2150     1.2760 ca         1 GVI      -0.118500
     11 C12         -2.7670     1.2130     1.2460 ca         1 GVI      -0.092500
     12 C13         -2.0590     0.0040     1.2340 cp         1 GVI      -0.149500
     13 C14         -2.7720    -1.2030     1.2510 ca         1 GVI      -0.092500
     14 C15         -4.1670    -1.2010     1.2810 ca         1 GVI      -0.118500
     15 N10         -6.8700     0.0150     2.6710 n7         1 GVI      -0.810200
     16 C16         -0.6260     0.0010     1.2020 cp         1 GVI       0.568800
     17 C1          -8.3330     0.0070     2.6820 c3         1 GVI       0.148100
     18 H2           1.8230    -0.0000    -0.9770 h5         1 GVI       0.052100
     19 H9           2.9900     0.0040     3.7300 hn         1 GVI       0.319700
     20 H9C1        -6.7120     0.8920     0.8090 h1         1 GVI       0.033700
     21 H9C2        -6.7160    -0.8700     0.8130 h1         1 GVI       0.033700
     22 H10         -6.5370     0.8380     3.1310 hn         1 GVI       0.353800
     23 H8           1.0370     0.4870     5.3000 h5         1 GVI       0.076800
     24 H11         -4.7010     2.1540     1.2860 ha         1 GVI       0.135000
     25 H15         -4.7100    -2.1380     1.2950 ha         1 GVI       0.135000
     26 H12         -2.2270     2.1520     1.2330 ha         1 GVI       0.135000
     27 H14         -2.2360    -2.1450     1.2420 ha         1 GVI       0.135000
     28 H1C1        -8.6860     0.0380     3.7060 h1         1 GVI       0.031367
     29 H1C2        -8.6930    -0.8950     2.2030 h1         1 GVI       0.031367
     30 H1C3        -8.7030     0.8730     2.1470 h1         1 GVI       0.031367
     31 C9          -6.3520     0.0110     1.3270 c3         1 GVI       0.202100
@<TRIPOS>BOND
     1     1     2 ar
     2     2     3 ar
     3     3     4 ar
     4     4     5 ar
     5     5     6 1
     6     6     7 2
     7     4     8 1
     8     7     8 1
     9    31     9 1
    10     9    10 ar
    11    10    11 ar
    12    11    12 ar
    13    12    13 ar
    14     9    14 ar
    15    13    14 ar
    16    31    15 1
    17     1    16 ar
    18     5    16 ar
    19    12    16 1
    20    15    17 1
    21     2    18 1
    22     8    19 1
    23    31    20 1
    24    31    21 1
    25    15    22 1
    26     7    23 1
    27    10    24 1
    28    14    25 1
    29    11    26 1
    30    13    27 1
    31    17    28 1
    32    17    29 1
    33    17    30 1
@<TRIPOS>SUBSTRUCTURE
     1 GVI         1 TEMP              0 ****  ****    0 ROOT
