@<TRIPOS>MOLECULE
GVI
   31    33     1     0     0
SMALL
bcc


@<TRIPOS>ATOM
      1 N1           0.0000     0.0000     0.0000 nb         1 GVI      -0.638000
      2 C2           1.3550     0.0000     0.0000 ca         1 GVI       0.639900
      3 N3           2.2020     0.0000     1.0520 nb         1 GVI      -0.617000
      4 C4           1.5170     0.0010     2.2060 ca         1 GVI       0.219800
      5 C5           0.1410     0.0020     2.3630 ca         1 GVI      -0.165200
      6 N7          -0.1960     0.0040     3.6930 nc         1 GVI      -0.470100
      7 C8           0.9550     0.0040     4.3340 cd         1 GVI       0.240700
      8 N9           2.0220     0.0040     3.4750 na         1 GVI       0.147000
      9 C10         -4.8610     0.0080     1.2940 ca         1 GVI      -0.085300
     10 C11         -4.1610     1.2150     1.2760 ca         1 GVI      -0.090000
     11 C12         -2.7670     1.2130     1.2460 ca         1 GVI      -0.064500
     12 C13         -2.0590     0.0040     1.2340 cp         1 GVI      -0.160500
     13 C14         -2.7720    -1.2030     1.2510 ca         1 GVI      -0.064500
     14 C15         -4.1670    -1.2010     1.2810 ca         1 GVI      -0.090000
     15 N10         -6.8700     0.0150     2.6710 n7         1 GVI      -0.571200
     16 C16         -0.6260     0.0010     1.2020 cp         1 GVI       0.558800
     17 C1          -8.3330     0.0070     2.6820 c3         1 GVI       0.178100
     18 H2           1.8230    -0.0000    -0.9770 h5         1 GVI      -0.011900
     19 H9           2.9900     0.0040     3.7300 hn         1 GVI       0.143700
     20 H9C1        -6.7120     0.8920     0.8090 h1         1 GVI       0.006200
     21 H9C2        -6.7160    -0.8700     0.8130 h1         1 GVI       0.006200
     22 H10         -6.5370     0.8380     3.1310 hn         1 GVI       0.250800
     23 H8           1.0370     0.4870     5.3000 h5         1 GVI       0.026800
     24 H11         -4.7010     2.1540     1.2860 ha         1 GVI       0.107000
     25 H15         -4.7100    -2.1380     1.2950 ha         1 GVI       0.107000
     26 H12         -2.2270     2.1520     1.2330 ha         1 GVI       0.104500
     27 H14         -2.2360    -2.1450     1.2420 ha         1 GVI       0.104500
     28 H1C1        -8.6860     0.0380     3.7060 h1         1 GVI      -0.002300
     29 H1C2        -8.6930    -0.8950     2.2030 h1         1 GVI      -0.002300
     30 H1C3        -8.7030     0.8730     2.1470 h1         1 GVI      -0.002300
     31 C9          -6.3520     0.0110     1.3270 c3         1 GVI       0.196100
@<TRIPOS>BOND
     1     1     2 ar  
     2     1    16 ar  
     3     2     3 ar  
     4     2    18 1   
     5     3     4 ar  
     6     4     5 ar  
     7     4     8 1   
     8     5     6 1   
     9     5    16 ar  
    10     6     7 2   
    11     7     8 1   
    12     7    23 1   
    13     8    19 1   
    14     9    10 ar  
    15     9    14 ar  
    16     9    31 1   
    17    10    11 ar  
    18    10    24 1   
    19    11    12 ar  
    20    11    26 1   
    21    12    13 ar  
    22    12    16 1   
    23    13    14 ar  
    24    13    27 1   
    25    14    25 1   
    26    15    17 1   
    27    15    22 1   
    28    15    31 1   
    29    17    28 1   
    30    17    29 1   
    31    17    30 1   
    32    20    31 1   
    33    21    31 1   
@<TRIPOS>SUBSTRUCTURE
     1 GVI         1 TEMP              0 ****  ****    0 ROOT
