@<TRIPOS>MOLECULE
molecule
   39    42     1     0     0
SMALL
bcc


@<TRIPOS>ATOM
      1 N1           0.0000     0.0000     0.0000 nz         1 GVJ      -0.810600
      2 C2           1.4750     0.0000     0.0000 c3         1 GVJ       0.230100
      3 C3           1.9840     0.0000     1.4360 ca         1 GVJ      -0.174300
      4 C4           2.2060     1.2090     2.0630 ca         1 GVJ      -0.104500
      5 C5           2.6720     1.2090     3.3770 ca         1 GVJ      -0.112500
      6 C6           2.9050     0.0020     4.0350 ca         1 GVJ      -0.082000
      7 C7           2.6730    -1.2070     3.3780 ca         1 GVJ      -0.112500
      8 C8           2.2060    -1.2070     2.0640 ca         1 GVJ      -0.104500
      9 C9           2.0100    -1.1060    -0.8460 ca         1 GVJ      -0.158300
     10 C10          3.1700    -0.9120    -1.5950 ca         1 GVJ      -0.118000
     11 C11          3.6710    -1.9460    -2.3870 ca         1 GVJ      -0.074000
     12 C12          3.0150    -3.1830    -2.4350 cp         1 GVJ      -0.084500
     13 C13          1.8500    -3.3680    -1.6790 ca         1 GVJ      -0.074000
     14 C14          1.3500    -2.3340    -0.8880 ca         1 GVJ      -0.118000
     15 C15          3.5300    -4.2460    -3.2490 cp         1 GVJ       0.521800
     16 N16          3.1120    -4.3450    -4.5330 nb         1 GVJ      -0.696000
     17 C17          3.6150    -5.3570    -5.2800 ca         1 GVJ       0.647900
     18 N18          4.5010    -6.3130    -4.9240 nb         1 GVJ      -0.652000
     19 C19          4.8720    -6.1540    -3.6440 ca         1 GVJ       0.422800
     20 N20          5.7480    -6.9220    -2.9300 na         1 GVJ      -0.364000
     21 C21          5.8160    -6.3870    -1.6700 cc         1 GVJ       0.438700
     22 N22          5.0420    -5.3310    -1.5360 nd         1 GVJ      -0.565100
     23 C23          4.4450    -5.1750    -2.7630 ca         1 GVJ      -0.141200
     24 H1N1        -0.3340    -0.1710    -0.9280 hn         1 GVJ       0.452467
     25 H1N2        -0.3340     0.8890     0.3160 hn         1 GVJ       0.452467
     26 H2           1.7960     0.9310    -0.4520 hx         1 GVJ       0.102700
     27 H4           2.0220     2.1410     1.5430 ha         1 GVJ       0.143500
     28 H8           2.0220    -2.1410     1.5450 ha         1 GVJ       0.143500
     29 H5           2.8530     2.1470     3.8870 ha         1 GVJ       0.157500
     30 H6           3.2670     0.0020     5.0560 ha         1 GVJ       0.159000
     31 H7           2.8540    -2.1450     3.8890 ha         1 GVJ       0.157500
     32 H10          3.6830     0.0420    -1.5620 ha         1 GVJ       0.130500
     33 H14          0.4490    -2.4850    -0.3060 ha         1 GVJ       0.130500
     34 H11          4.5720    -1.7910    -2.9670 ha         1 GVJ       0.161000
     35 H13          1.3350    -4.3200    -1.7080 ha         1 GVJ       0.161000
     36 H17          3.2590    -5.4070    -6.3020 h5         1 GVJ       0.064100
     37 H20          6.2460    -7.7230    -3.2640 hn         1 GVJ       0.331700
     38 H21          6.7330    -6.4620    -1.0990 h5         1 GVJ       0.086800
     39 H131        -0.3340    -0.7100     0.6210 hn         1 GVJ       0.452467
@<TRIPOS>BOND
     1     1     2 1
     2     2     3 1
     3     3     4 ar
     4     4     5 ar
     5     5     6 ar
     6     6     7 ar
     7     3     8 ar
     8     7     8 ar
     9     2     9 1
    10     9    10 ar
    11    10    11 ar
    12    11    12 ar
    13    12    13 ar
    14     9    14 ar
    15    13    14 ar
    16    12    15 1
    17    15    16 ar
    18    16    17 ar
    19    17    18 ar
    20    18    19 ar
    21    19    20 1
    22    20    21 1
    23    21    22 2
    24    15    23 ar
    25    19    23 ar
    26    22    23 1
    27     1    24 1
    28     1    25 1
    29     2    26 1
    30     4    27 1
    31     8    28 1
    32     5    29 1
    33     6    30 1
    34     7    31 1
    35    10    32 1
    36    14    33 1
    37    11    34 1
    38    13    35 1
    39    17    36 1
    40    20    37 1
    41    21    38 1
    42    39     1 1
@<TRIPOS>SUBSTRUCTURE
     1 GVJ         1 TEMP              0 ****  ****    0 ROOT
