@<TRIPOS>MOLECULE
GVJ
   39    42     1     0     0
SMALL
bcc


@<TRIPOS>ATOM
      1 N1           0.0000     0.0000     0.0000 nz         1 GVJ       0.054400
      2 C2           1.4750     0.0000     0.0000 c3         1 GVJ       0.091100
      3 C3           1.9840     0.0000     1.4360 ca         1 GVJ      -0.190300
      4 C4           2.2060     1.2090     2.0630 ca         1 GVJ      -0.078000
      5 C5           2.6720     1.2090     3.3770 ca         1 GVJ      -0.077500
      6 C6           2.9050     0.0020     4.0350 ca         1 GVJ      -0.048000
      7 C7           2.6730    -1.2070     3.3780 ca         1 GVJ      -0.077500
      8 C8           2.2060    -1.2070     2.0640 ca         1 GVJ      -0.078000
      9 C9           2.0100    -1.1060    -0.8460 ca         1 GVJ      -0.178300
     10 C10          3.1700    -0.9120    -1.5950 ca         1 GVJ      -0.086500
     11 C11          3.6710    -1.9460    -2.3870 ca         1 GVJ      -0.041500
     12 C12          3.0150    -3.1830    -2.4350 cp         1 GVJ      -0.084500
     13 C13          1.8500    -3.3680    -1.6790 ca         1 GVJ      -0.041500
     14 C14          1.3500    -2.3340    -0.8880 ca         1 GVJ      -0.086500
     15 C15          3.5300    -4.2460    -3.2490 cp         1 GVJ       0.497800
     16 N16          3.1120    -4.3450    -4.5330 nb         1 GVJ      -0.626000
     17 C17          3.6150    -5.3570    -5.2800 ca         1 GVJ       0.636900
     18 N18          4.5010    -6.3130    -4.9240 nb         1 GVJ      -0.578000
     19 C19          4.8720    -6.1540    -3.6440 ca         1 GVJ       0.220800
     20 N20          5.7480    -6.9220    -2.9300 na         1 GVJ       0.160000
     21 C21          5.8160    -6.3870    -1.6700 cc         1 GVJ       0.270700
     22 N22          5.0420    -5.3310    -1.5360 nd         1 GVJ      -0.502100
     23 C23          4.4450    -5.1750    -2.7630 ca         1 GVJ      -0.156200
     24 H1N1        -0.3340    -0.1710    -0.9280 hn         1 GVJ       0.225800
     25 H1N2        -0.3340     0.8890     0.3160 hn         1 GVJ       0.225800
     26 H2           1.7960     0.9310    -0.4520 hx         1 GVJ       0.075700
     27 H4           2.0220     2.1410     1.5430 ha         1 GVJ       0.117500
     28 H8           2.0220    -2.1410     1.5450 ha         1 GVJ       0.117500
     29 H5           2.8530     2.1470     3.8870 ha         1 GVJ       0.123500
     30 H6           3.2670     0.0020     5.0560 ha         1 GVJ       0.123000
     31 H7           2.8540    -2.1450     3.8890 ha         1 GVJ       0.123500
     32 H10          3.6830     0.0420    -1.5620 ha         1 GVJ       0.102500
     33 H14          0.4490    -2.4850    -0.3060 ha         1 GVJ       0.102500
     34 H11          4.5720    -1.7910    -2.9670 ha         1 GVJ       0.125000
     35 H13          1.3350    -4.3200    -1.7080 ha         1 GVJ       0.125000
     36 H17          3.2590    -5.4070    -6.3020 h5         1 GVJ      -0.001900
     37 H20          6.2460    -7.7230    -3.2640 hn         1 GVJ       0.154700
     38 H21          6.7330    -6.4620    -1.0990 h5         1 GVJ       0.033800
     39 H131        -0.3340    -0.7100     0.6210 hn         1 GVJ       0.225800
@<TRIPOS>BOND
     1     1     2 1   
     2     1    24 1   
     3     1    25 1   
     4     1    39 1   
     5     2     3 1   
     6     2     9 1   
     7     2    26 1   
     8     3     4 ar  
     9     3     8 ar  
    10     4     5 ar  
    11     4    27 1   
    12     5     6 ar  
    13     5    29 1   
    14     6     7 ar  
    15     6    30 1   
    16     7     8 ar  
    17     7    31 1   
    18     8    28 1   
    19     9    10 ar  
    20     9    14 ar  
    21    10    11 ar  
    22    10    32 1   
    23    11    12 ar  
    24    11    34 1   
    25    12    13 ar  
    26    12    15 1   
    27    13    14 ar  
    28    13    35 1   
    29    14    33 1   
    30    15    16 ar  
    31    15    23 ar  
    32    16    17 ar  
    33    17    18 ar  
    34    17    36 1   
    35    18    19 ar  
    36    19    20 1   
    37    19    23 ar  
    38    20    21 1   
    39    20    37 1   
    40    21    22 2   
    41    21    38 1   
    42    22    23 1   
@<TRIPOS>SUBSTRUCTURE
     1 GVJ         1 TEMP              0 ****  ****    0 ROOT
