@<TRIPOS>MOLECULE
molecule
   48    52     1     0     0
SMALL
bcc


@<TRIPOS>ATOM
      1 Cl1          0.0000     0.0000     0.0000 cl         1 GVK      -0.105400
      2 C2           1.7210     0.0000     0.0000 ca         1 GVK       0.020400
      3 C3           2.4180     0.0000     1.2080 ca         1 GVK      -0.119000
      4 C4           3.8130    -0.0010     1.2080 ca         1 GVK      -0.114500
      5 C5           4.5080    -0.0020     0.0000 ca         1 GVK      -0.064300
      6 C6           3.8130    -0.0020    -1.2080 ca         1 GVK      -0.114500
      7 C7           2.4180    -0.0010    -1.2080 ca         1 GVK      -0.119000
      8 C8           6.0630    -0.0010     0.0000 c3         1 GVK       0.033600
      9 C9           6.5610     0.8340    -1.2350 c3         1 GVK      -0.067900
     10 C10          8.0700     1.1090    -1.2510 c3         1 GVK       0.161800
     11 N11          8.5200     1.7630    -0.0270 n7         1 GVK      -0.818200
     12 C14          8.1770     0.9710     1.1490 c3         1 GVK       0.161800
     13 C15          6.6640     0.7610     1.2370 c3         1 GVK      -0.067900
     14 C16          6.5300    -1.4840     0.0010 ca         1 GVK      -0.056300
     15 C17          6.7390    -2.1460     1.2100 ca         1 GVK      -0.127000
     16 C18          7.1560    -3.4760     1.2100 ca         1 GVK      -0.089500
     17 C19          7.3640    -4.1430     0.0030 cp         1 GVK      -0.151500
     18 C20          7.1560    -3.4780    -1.2050 ca         1 GVK      -0.089500
     19 C21          6.7380    -2.1480    -1.2060 ca         1 GVK      -0.127000
     20 C22          7.7990    -5.5230     0.0040 cp         1 GVK       0.562800
     21 N23          9.1230    -5.7770     0.0060 nb         1 GVK      -0.698000
     22 C24          9.5020    -7.0780     0.0100 ca         1 GVK       0.643900
     23 N25          8.7270    -8.1850     0.0110 nb         1 GVK      -0.684000
     24 C26          7.4280    -7.8490     0.0080 ca         1 GVK       0.415800
     25 N27          6.3510    -8.6880     0.0100 na         1 GVK      -0.371000
     26 C29          5.2290    -7.9020     0.0070 cc         1 GVK       0.413700
     27 N30          5.5220    -6.6180     0.0040 nd         1 GVK      -0.538100
     28 C31          6.8930    -6.5710     0.0050 ca         1 GVK      -0.145200
     29 H3           1.8770     0.0010     2.1470 ha         1 GVK       0.143500
     30 H7           1.8770    -0.0010    -2.1460 ha         1 GVK       0.143500
     31 H4           4.3550    -0.0010     2.1460 ha         1 GVK       0.138500
     32 H6           4.3560    -0.0020    -2.1460 ha         1 GVK       0.138500
     33 H9C1         6.0420     1.7850    -1.2350 hc         1 GVK       0.050200
     34 H9C2         6.3030     0.2950    -2.1380 hc         1 GVK       0.050200
     35 H151         6.4470     0.1910     2.1330 hc         1 GVK       0.050200
     36 H152         6.1850     1.7300     1.3120 hc         1 GVK       0.050200
     37 H101         8.5970     0.1680    -1.3600 h1         1 GVK       0.034450
     38 H102         8.3020     1.7470    -2.0950 h1         1 GVK       0.034450
     39 H11          9.5120     1.8930    -0.0640 hn         1 GVK       0.357800
     40 H141         8.6660     0.0070     1.0830 h1         1 GVK       0.034450
     41 H142         8.5160     1.4890     2.0370 h1         1 GVK       0.034450
     42 H17          6.5770    -1.6280     2.1470 ha         1 GVK       0.135500
     43 H21          6.5760    -1.6310    -2.1440 ha         1 GVK       0.135500
     44 H18          7.3180    -3.9920     2.1490 ha         1 GVK       0.136500
     45 H20          7.3180    -3.9950    -2.1430 ha         1 GVK       0.136500
     46 H24         10.5700    -7.2550     0.0130 h5         1 GVK       0.052100
     47 H27          6.3760    -9.6880     0.0120 hn         1 GVK       0.319700
     48 H29          4.3230    -8.2520    -0.4750 h5         1 GVK       0.077800
@<TRIPOS>BOND
     1     1     2 1
     2     2     3 ar
     3     3     4 ar
     4     4     5 ar
     5     5     6 ar
     6     2     7 ar
     7     6     7 ar
     8     5     8 1
     9     8     9 1
    10     9    10 1
    11    10    11 1
    12    11    12 1
    13     8    13 1
    14    12    13 1
    15     8    14 1
    16    14    15 ar
    17    15    16 ar
    18    16    17 ar
    19    17    18 ar
    20    14    19 ar
    21    18    19 ar
    22    17    20 1
    23    20    21 ar
    24    21    22 ar
    25    22    23 ar
    26    23    24 ar
    27    24    25 1
    28    25    26 1
    29    26    27 2
    30    20    28 ar
    31    24    28 ar
    32    27    28 1
    33     3    29 1
    34     7    30 1
    35     4    31 1
    36     6    32 1
    37     9    33 1
    38     9    34 1
    39    13    35 1
    40    13    36 1
    41    10    37 1
    42    10    38 1
    43    11    39 1
    44    12    40 1
    45    12    41 1
    46    15    42 1
    47    19    43 1
    48    16    44 1
    49    18    45 1
    50    22    46 1
    51    25    47 1
    52    26    48 1
@<TRIPOS>SUBSTRUCTURE
     1 GVK         1 TEMP              0 ****  ****    0 ROOT
