@<TRIPOS>MOLECULE
GVM
   26    25     1     0     0
SMALL
bcc


@<TRIPOS>ATOM
      1 C1         -0.3230   -0.0320   -0.0770 c         1 GVM      0.908600
      2 O1A         0.9060    0.2530    0.0590 o         1 GVM     -0.851300
      3 O1B        -1.0610   -0.4090    0.8750 o         1 GVM     -0.851300
      4 C2         -0.9470    0.0660   -1.4780 c3        1 GVM     -0.231400
      5 C3         -0.4000    1.2280   -2.2970 c3        1 GVM      0.178100
      6 O3          0.9620    1.0190   -2.6360 oh        1 GVM     -0.654800
      7 C4         -0.5900    2.5420   -1.5390 c3        1 GVM     -0.105400
      8 C5A         0.7910    3.8850   -3.1450 c3        1 GVM     -0.081100
      9 C5B        -0.6210    5.0120   -1.4470 c3        1 GVM     -0.081100
     10 C5C        -1.6830    3.8710   -3.3690 c3        1 GVM     -0.081100
     11 C5         -0.5230    3.8120   -2.3850 c3        1 GVM     -0.050000
     12 H2C1       -2.0560    0.1640   -1.3820 hc        1 GVM      0.033700
     13 H2C2       -0.7220   -0.8900   -2.0150 hc        1 GVM      0.033700
     14 H3         -0.9250    1.2750   -3.2950 h1        1 GVM      0.020700
     15 HA          1.4250    0.7880   -1.8110 ho        1 GVM      0.449000
     16 H4C1        0.2000    2.5840   -0.7410 hc        1 GVM      0.061200
     17 H4C2       -1.5870    2.5120   -1.0250 hc        1 GVM      0.061200
     18 H5A1        1.6470    3.8350   -2.4300 hc        1 GVM      0.026922
     19 H5A2        0.8770    3.0190   -3.8460 hc        1 GVM      0.026922
     20 H5A3        0.8550    4.8360   -3.7250 hc        1 GVM      0.026922
     21 H5B1        0.2210    4.9960   -0.7140 hc        1 GVM      0.026922
     22 H5B2       -0.5730    5.9650   -2.0260 hc        1 GVM      0.026922
     23 H5B3       -1.5840    4.9840   -0.8830 hc        1 GVM      0.026922
     24 H5C1       -2.6530    3.7440   -2.8320 hc        1 GVM      0.026922
     25 H5C2       -1.6940    4.8560   -3.8960 hc        1 GVM      0.026922
     26 H5C3       -1.5900    3.0650   -4.1340 hc        1 GVM      0.026922
@<TRIPOS>BOND
     1    1    2 1   
     2    1    3 1   
     3    1    4 1   
     4    4    5 1   
     5    4   12 1   
     6    4   13 1   
     7    5    6 1   
     8    5    7 1   
     9    5   14 1   
    10    6   15 1   
    11    7   11 1   
    12    7   16 1   
    13    7   17 1   
    14    8   11 1   
    15    8   18 1   
    16    8   19 1   
    17    8   20 1   
    18    9   11 1   
    19    9   21 1   
    20    9   22 1   
    21    9   23 1   
    22   10   11 1   
    23   10   24 1   
    24   10   25 1   
    25   10   26 1   
@<TRIPOS>SUBSTRUCTURE
     1 GVM         1 TEMP              0 ****  ****    0 ROOT
