@<TRIPOS>MOLECULE
molecule
   26    25     1     0     0
SMALL
bcc


@<TRIPOS>ATOM
      1 C1           0.0000     0.0000     0.0000 c          1 GVM       0.895600
      2 O1A          1.2230     0.0000     0.0000 o          1 GVM      -0.849800
      3 O1B         -0.7460     0.0000     1.1330 o          1 GVM      -0.849800
      4 C2          -0.8440     0.0150    -1.2530 c3         1 GVM      -0.208400
      5 C3          -0.5460     1.1980    -2.1820 c3         1 GVM       0.174100
      6 O3           0.7840     1.0760    -2.6760 oh         1 GVM      -0.594800
      7 C4          -0.7600     2.5620    -1.5030 c3         1 GVM      -0.056400
      8 C5A          0.9190     3.9170    -2.8660 c3         1 GVM      -0.078767
      9 C5B         -0.8260     5.0660    -1.5000 c3         1 GVM      -0.078767
     10 C5C         -1.4790     3.8740    -3.5920 c3         1 GVM      -0.078767
     11 C5          -0.5370     3.8300    -2.3790 c3         1 GVM      -0.064000
     12 H2C1        -1.8880     0.0560    -0.9660 hc         1 GVM       0.029700
     13 H2C2        -0.6700    -0.9040    -1.7990 hc         1 GVM       0.029700
     14 H3          -1.2230     1.1370    -3.0260 h1         1 GVM      -0.022300
     15 HA           0.8190     0.3850    -3.3160 ho         1 GVM       0.380000
     16 H4C1        -1.7760     2.5920    -1.1280 hc         1 GVM       0.062200
     17 H4C2        -0.0880     2.6210    -0.6560 hc         1 GVM       0.062200
     18 H5A1         1.5870     3.6480    -2.0570 hc         1 GVM       0.027367
     19 H5A2         1.0630     3.2340    -3.6950 hc         1 GVM       0.027367
     20 H5A3         1.1320     4.9280    -3.1900 hc         1 GVM       0.027367
     21 H5B1        -1.8600     5.0450    -1.1750 hc         1 GVM       0.027367
     22 H5B2        -0.1760     5.0530    -0.6330 hc         1 GVM       0.027367
     23 H5B3        -0.6460     5.9670    -2.0730 hc         1 GVM       0.027367
     24 H5C1        -1.1500     3.1530    -4.3310 hc         1 GVM       0.027367
     25 H5C2        -2.4870     3.6320    -3.2760 hc         1 GVM       0.027367
     26 H5C3        -1.4650     4.8660    -4.0250 hc         1 GVM       0.027367
@<TRIPOS>BOND
     1     1     2 1
     2     1     3 1
     3     1     4 1
     4     4     5 1
     5     5     6 1
     6     5     7 1
     7     7    11 1
     8     8    11 1
     9     9    11 1
    10    10    11 1
    11     4    12 1
    12     4    13 1
    13     5    14 1
    14     6    15 1
    15     7    16 1
    16     7    17 1
    17     8    18 1
    18     8    19 1
    19     8    20 1
    20     9    21 1
    21     9    22 1
    22     9    23 1
    23    10    24 1
    24    10    25 1
    25    10    26 1
@<TRIPOS>SUBSTRUCTURE
     1 GVM         1 TEMP              0 ****  ****    0 ROOT
