@<TRIPOS>MOLECULE
molecule
   38    40     1     0     0
SMALL
bcc


@<TRIPOS>ATOM
      1 N1           0.0000     0.0000     0.0000 nz         1 GVN      -0.795600
      2 C2           1.4470     0.0000     0.0000 c3         1 GVN       0.084800
      3 C3           2.0180     0.0000     1.4510 c3         1 GVN       0.018900
      4 C4           3.5400    -0.2160     1.4730 ca         1 GVN      -0.094300
      5 C5           4.0920    -0.8460     2.5600 ca         1 GVN      -0.114500
      6 C6           5.4730    -1.0430     2.5800 ca         1 GVN      -0.103500
      7 C7           6.2550    -0.6040     1.5130 ca         1 GVN       0.035400
      8 Cl8          7.9590    -0.8460     1.5370 cl         1 GVN      -0.059400
      9 C9           5.6580     0.0320     0.4250 ca         1 GVN      -0.103500
     10 C10          4.2770     0.2300     0.4050 ca         1 GVN      -0.114500
     11 C11          1.5970     1.1710     2.2720 ca         1 GVN      -0.170300
     12 C12          0.7820     0.9840     3.3890 ca         1 GVN      -0.118500
     13 C13          0.3890     2.0800     4.1570 ca         1 GVN      -0.118000
     14 C14          0.8090     3.3630     3.8080 ca         1 GVN       0.049000
     15 C15          1.6240     3.5500     2.6910 ca         1 GVN      -0.118000
     16 C16          2.0170     2.4550     1.9230 ca         1 GVN      -0.118500
     17 C17          0.4040     4.4910     4.5990 cc         1 GVN      -0.261300
     18 C18          1.1520     5.6280     4.7490 cd         1 GVN      -0.122300
     19 N19          0.4240     6.4430     5.5660 na         1 GVN      -0.003600
     20 N20         -0.7480     5.9130     5.9560 nd         1 GVN      -0.460800
     21 C21         -0.7540     4.7170     5.3610 cc         1 GVN       0.311200
     22 H1N1        -0.3340    -0.2630    -0.9060 hn         1 GVN       0.456800
     23 H1N2        -0.3340     0.9160     0.2250 hn         1 GVN       0.456800
     24 H2C1         1.8010     0.8820    -0.5200 hx         1 GVN       0.110700
     25 H2C2         1.8010    -0.8820    -0.5190 hx         1 GVN       0.110700
     26 H3           1.5890    -0.8690     1.9360 hc         1 GVN       0.056700
     27 H5           3.4710    -1.1820     3.3820 ha         1 GVN       0.136500
     28 H10          3.7980     0.7220    -0.4330 ha         1 GVN       0.136500
     29 H6           5.9380    -1.5380     3.4240 ha         1 GVN       0.160500
     30 H9           6.2660     0.3740    -0.4040 ha         1 GVN       0.160500
     31 H12          0.4540    -0.0120     3.6590 ha         1 GVN       0.132500
     32 H16          2.6490     2.6010     1.0550 ha         1 GVN       0.132500
     33 H13         -0.2420     1.9340     5.0260 ha         1 GVN       0.156000
     34 H15          1.9510     4.5470     2.4210 ha         1 GVN       0.156000
     35 H18          2.2260     5.5580     4.8730 h4         1 GVN       0.190000
     36 H21         -1.6920     4.2620     5.0680 h4         1 GVN       0.041100
     37 H19          0.7330     7.3520     5.8480 hn         1 GVN       0.330700
     38 H131        -0.3340    -0.6500     0.6840 hn         1 GVN       0.456800
@<TRIPOS>BOND
     1     1     2 1
     2     2     3 1
     3     3     4 1
     4     4     5 ar
     5     5     6 ar
     6     6     7 ar
     7     7     8 1
     8     7     9 ar
     9     4    10 ar
    10     9    10 ar
    11     3    11 1
    12    11    12 ar
    13    12    13 ar
    14    13    14 ar
    15    14    15 ar
    16    11    16 ar
    17    15    16 ar
    18    14    17 1
    19    17    18 2
    20    18    19 1
    21    19    20 1
    22    17    21 1
    23    20    21 2
    24     1    22 1
    25     1    23 1
    26     2    24 1
    27     2    25 1
    28     3    26 1
    29     5    27 1
    30    10    28 1
    31     6    29 1
    32     9    30 1
    33    12    31 1
    34    16    32 1
    35    13    33 1
    36    15    34 1
    37    18    35 1
    38    21    36 1
    39    19    37 1
    40    38     1 1
@<TRIPOS>SUBSTRUCTURE
     1 GVN         1 TEMP              0 ****  ****    0 ROOT
