@<TRIPOS>MOLECULE
molecule
   38    40     1     0     0
SMALL
bcc


@<TRIPOS>ATOM
      1 N1           0.0000     0.0000     0.0000 nz         1 GVO      -0.796600
      2 C2           1.4470     0.0000     0.0000 c3         1 GVO       0.083800
      3 C3           2.0170     0.0000     1.4510 c3         1 GVO       0.019900
      4 C4           3.5370     0.2340     1.4360 ca         1 GVO      -0.096300
      5 C5           4.1090     0.8690     2.5100 ca         1 GVO      -0.115500
      6 C6           5.4870     1.0800     2.4980 ca         1 GVO      -0.103000
      7 C7           6.2490     0.6500     1.4110 ca         1 GVO       0.035400
      8 Cl8          7.9500     0.9110     1.3950 cl         1 GVO      -0.058400
      9 C9           5.6310     0.0090     0.3370 ca         1 GVO      -0.103000
     10 C10          4.2520    -0.2030     0.3500 ca         1 GVO      -0.115500
     11 C11          1.6250    -1.1790     2.2740 ca         1 GVO      -0.168300
     12 C12          0.8290    -1.0070     3.4070 ca         1 GVO      -0.118000
     13 C13          0.4620    -2.1110     4.1760 ca         1 GVO      -0.118000
     14 C14          0.8920    -3.3870     3.8140 ca         1 GVO       0.048000
     15 C15          1.6880    -3.5600     2.6820 ca         1 GVO      -0.118000
     16 C16          2.0550    -2.4570     1.9120 ca         1 GVO      -0.118000
     17 C17          0.5140    -4.5240     4.6070 cc         1 GVO      -0.258300
     18 C18          0.2400    -4.6430     5.9790 cc         1 GVO       0.312200
     19 N19         -0.0810    -5.8910     6.3300 nd         1 GVO      -0.458800
     20 N20         -0.0090    -6.5620     5.1680 na         1 GVO      -0.003600
     21 C21          0.3460    -5.7860     4.1040 cd         1 GVO      -0.125300
     22 H1N1        -0.3340     0.6230     0.7080 hn         1 GVO       0.456133
     23 H1N2        -0.3340    -0.9250     0.1860 hn         1 GVO       0.456133
     24 H2C1         1.8010     0.8820    -0.5190 hx         1 GVO       0.111200
     25 H2C2         1.8010    -0.8820    -0.5190 hx         1 GVO       0.111200
     26 H3           1.5850     0.8630     1.9420 hc         1 GVO       0.056700
     27 H5           3.5040     1.1970     3.3470 ha         1 GVO       0.136000
     28 H10          3.7590    -0.6990    -0.4770 ha         1 GVO       0.136000
     29 H6           5.9660     1.5780     3.3320 ha         1 GVO       0.160500
     30 H9           6.2230    -0.3250    -0.5070 ha         1 GVO       0.160500
     31 H12          0.4970    -0.0150     3.6890 ha         1 GVO       0.132500
     32 H16          2.6740    -2.5910     1.0330 ha         1 GVO       0.132500
     33 H13         -0.1570    -1.9770     5.0550 ha         1 GVO       0.155500
     34 H15          2.0200    -4.5520     2.4000 ha         1 GVO       0.155500
     35 H18          0.7350    -3.9910     6.6890 h4         1 GVO       0.048100
     36 H21         -0.1390    -5.9260     3.1450 h4         1 GVO       0.180000
     37 H20         -0.1970    -7.5420     5.0900 hn         1 GVO       0.329700
     38 H131        -0.3340     0.3100    -0.8910 hn         1 GVO       0.456133
@<TRIPOS>BOND
     1     1     2 1
     2     2     3 1
     3     3     4 1
     4     4     5 ar
     5     5     6 ar
     6     6     7 ar
     7     7     8 1
     8     7     9 ar
     9     4    10 ar
    10     9    10 ar
    11     3    11 1
    12    11    12 ar
    13    12    13 ar
    14    13    14 ar
    15    14    15 ar
    16    11    16 ar
    17    15    16 ar
    18    14    17 1
    19    17    18 1
    20    18    19 2
    21    19    20 1
    22    17    21 2
    23    20    21 1
    24     1    22 1
    25     1    23 1
    26     2    24 1
    27     2    25 1
    28     3    26 1
    29     5    27 1
    30    10    28 1
    31     6    29 1
    32     9    30 1
    33    12    31 1
    34    16    32 1
    35    13    33 1
    36    15    34 1
    37    18    35 1
    38    21    36 1
    39    20    37 1
    40    38     1 1
@<TRIPOS>SUBSTRUCTURE
     1 GVO         1 TEMP              0 ****  ****    0 ROOT
