@<TRIPOS>MOLECULE
GVO
   38    40     1     0     0
SMALL
bcc


@<TRIPOS>ATOM
      1 N1           0.0000     0.0000     0.0000 nz         1 GVO       0.105400
      2 C2           1.4470     0.0000     0.0000 c3         1 GVO      -0.078200
      3 C3           2.0170     0.0000     1.4510 c3         1 GVO       0.090900
      4 C4           3.5370     0.2340     1.4360 ca         1 GVO      -0.113300
      5 C5           4.1090     0.8690     2.5100 ca         1 GVO      -0.088500
      6 C6           5.4870     1.0800     2.4980 ca         1 GVO      -0.075500
      7 C7           6.2490     0.6500     1.4110 ca         1 GVO      -0.036600
      8 Cl8          7.9500     0.9110     1.3950 cl         1 GVO       0.030600
      9 C9           5.6310     0.0090     0.3370 ca         1 GVO      -0.075500
     10 C10          4.2520    -0.2030     0.3500 ca         1 GVO      -0.088500
     11 C11          1.6250    -1.1790     2.2740 ca         1 GVO      -0.199300
     12 C12          0.8290    -1.0070     3.4070 ca         1 GVO      -0.085500
     13 C13          0.4620    -2.1110     4.1760 ca         1 GVO      -0.092500
     14 C14          0.8920    -3.3870     3.8140 ca         1 GVO       0.068000
     15 C15          1.6880    -3.5600     2.6820 ca         1 GVO      -0.092500
     16 C16          2.0550    -2.4570     1.9120 ca         1 GVO      -0.085500
     17 C17          0.5140    -4.5240     4.6070 cc         1 GVO      -0.265300
     18 C18          0.2400    -4.6430     5.9790 cc         1 GVO       0.369200
     19 N19         -0.0810    -5.8910     6.3300 nd         1 GVO      -0.622800
     20 N20         -0.0090    -6.5620     5.1680 na         1 GVO       0.528400
     21 C21          0.3460    -5.7860     4.1040 cd         1 GVO      -0.295300
     22 H1N1        -0.3340     0.6230     0.7080 hn         1 GVO       0.220133
     23 H1N2        -0.3340    -0.9250     0.1860 hn         1 GVO       0.220133
     24 H2C1         1.8010     0.8820    -0.5190 hx         1 GVO       0.088700
     25 H2C2         1.8010    -0.8820    -0.5190 hx         1 GVO       0.088700
     26 H3           1.5850     0.8630     1.9420 hc         1 GVO       0.027700
     27 H5           3.5040     1.1970     3.3470 ha         1 GVO       0.109000
     28 H10          3.7590    -0.6990    -0.4770 ha         1 GVO       0.109000
     29 H6           5.9660     1.5780     3.3320 ha         1 GVO       0.125500
     30 H9           6.2230    -0.3250    -0.5070 ha         1 GVO       0.125500
     31 H12          0.4970    -0.0150     3.6890 ha         1 GVO       0.107500
     32 H16          2.6740    -2.5910     1.0330 ha         1 GVO       0.107500
     33 H13         -0.1570    -1.9770     5.0550 ha         1 GVO       0.127500
     34 H15          2.0200    -4.5520     2.4000 ha         1 GVO       0.127500
     35 H18          0.7350    -3.9910     6.6890 h4         1 GVO       0.006100
     36 H21         -0.1390    -5.9260     3.1450 h4         1 GVO       0.152000
     37 H20         -0.1970    -7.5420     5.0900 hn         1 GVO       0.141700
     38 H131        -0.3340     0.3100    -0.8910 hn         1 GVO       0.220133
@<TRIPOS>BOND
     1     1     2 1   
     2     1    22 1   
     3     1    23 1   
     4     1    38 1   
     5     2     3 1   
     6     2    24 1   
     7     2    25 1   
     8     3     4 1   
     9     3    11 1   
    10     3    26 1   
    11     4     5 ar  
    12     4    10 ar  
    13     5     6 ar  
    14     5    27 1   
    15     6     7 ar  
    16     6    29 1   
    17     7     8 1   
    18     7     9 ar  
    19     9    10 ar  
    20     9    30 1   
    21    10    28 1   
    22    11    12 ar  
    23    11    16 ar  
    24    12    13 ar  
    25    12    31 1   
    26    13    14 ar  
    27    13    33 1   
    28    14    15 ar  
    29    14    17 1   
    30    15    16 ar  
    31    15    34 1   
    32    16    32 1   
    33    17    18 1   
    34    17    21 2   
    35    18    19 2   
    36    18    35 1   
    37    19    20 1   
    38    20    21 1   
    39    20    37 1   
    40    21    36 1   
@<TRIPOS>SUBSTRUCTURE
     1 GVO         1 TEMP              0 ****  ****    0 ROOT
