@<TRIPOS>MOLECULE
GVP
   44    47     1     0     0
SMALL
bcc


@<TRIPOS>ATOM
      1 Cl1          0.0000     0.0000     0.0000 cl         1 GVP      -0.025400
      2 C2           1.7210     0.0000     0.0000 ca         1 GVP      -0.042600
      3 C3           2.4180     0.0000     1.2080 ca         1 GVP      -0.095500
      4 C4           3.8130    -0.0010     1.2080 ca         1 GVP      -0.092500
      5 C5           4.5080    -0.0020     0.0000 ca         1 GVP      -0.071300
      6 C6           3.8130    -0.0020    -1.2080 ca         1 GVP      -0.092500
      7 C7           2.4180    -0.0010    -1.2080 ca         1 GVP      -0.095500
      8 C8           6.0630    -0.0010     0.0000 c3         1 GVP       0.066600
      9 C9           6.5610     0.8340    -1.2350 c3         1 GVP      -0.030400
     10 C10          8.0700     1.1090    -1.2510 c3         1 GVP       0.149300
     11 N11          8.5200     1.7630    -0.0270 n7         1 GVP      -0.575200
     12 C12          8.1770     0.9710     1.1490 c3         1 GVP       0.149300
     13 C13          6.6640     0.7610     1.2370 c3         1 GVP      -0.030400
     14 C14          6.5300    -1.4840     0.0010 ca         1 GVP      -0.078300
     15 C15          6.7380    -2.1450     1.2100 ca         1 GVP      -0.103000
     16 C16          7.1570    -3.4770     1.2110 ca         1 GVP      -0.093000
     17 C17          7.3660    -4.1430     0.0030 ca         1 GVP       0.004000
     18 C18          7.1570    -3.4790    -1.2050 ca         1 GVP      -0.093000
     19 C19          6.7390    -2.1470    -1.2060 ca         1 GVP      -0.103000
     20 C20          7.7960    -5.5120     0.0050 cc         1 GVP      -0.212300
     21 C21          7.4840    -6.4140    -0.9780 cd         1 GVP      -0.314300
     22 N22          8.0760    -7.5850    -0.6060 na         1 GVP       0.506400
     23 N23          8.7540    -7.5060     0.5530 nd         1 GVP      -0.650800
     24 C24          8.5770    -6.2340     0.9210 cc         1 GVP       0.353200
     25 H3           1.8770     0.0010     2.1470 ha         1 GVP       0.113500
     26 H7           1.8770    -0.0010    -2.1460 ha         1 GVP       0.113500
     27 H4           4.3550    -0.0010     2.1460 ha         1 GVP       0.114000
     28 H6           4.3560    -0.0020    -2.1460 ha         1 GVP       0.114000
     29 H9C1         6.0420     1.7850    -1.2350 hc         1 GVP       0.024950
     30 H9C2         6.3030     0.2950    -2.1380 hc         1 GVP       0.024950
     31 H131         6.1850     1.7300     1.3120 hc         1 GVP       0.024950
     32 H132         6.4470     0.1910     2.1330 hc         1 GVP       0.024950
     33 H101         8.5970     0.1680    -1.3600 h1         1 GVP       0.006950
     34 H102         8.3020     1.7470    -2.0950 h1         1 GVP       0.006950
     35 H11          9.5120     1.8930    -0.0640 hn         1 GVP       0.251800
     36 H121         8.5160     1.4890     2.0370 h1         1 GVP       0.006950
     37 H122         8.6660     0.0070     1.0830 h1         1 GVP       0.006950
     38 H15          6.5750    -1.6270     2.1470 ha         1 GVP       0.112500
     39 H19          6.5760    -1.6310    -2.1440 ha         1 GVP       0.112500
     40 H16          7.3190    -3.9930     2.1500 ha         1 GVP       0.110500
     41 H18          7.3200    -3.9960    -2.1430 ha         1 GVP       0.110500
     42 H21          6.4900    -6.4230    -1.4090 h4         1 GVP       0.157000
     43 H24          9.3390    -5.7270     1.5000 h4         1 GVP       0.000100
     44 H22          8.0130    -8.4250    -1.1460 hn         1 GVP       0.131700
@<TRIPOS>BOND
     1     1     2 1   
     2     2     3 ar  
     3     2     7 ar  
     4     3     4 ar  
     5     3    25 1   
     6     4     5 ar  
     7     4    27 1   
     8     5     6 ar  
     9     5     8 1   
    10     6     7 ar  
    11     6    28 1   
    12     7    26 1   
    13     8     9 1   
    14     8    13 1   
    15     8    14 1   
    16     9    10 1   
    17     9    29 1   
    18     9    30 1   
    19    10    11 1   
    20    10    33 1   
    21    10    34 1   
    22    11    12 1   
    23    11    35 1   
    24    12    13 1   
    25    12    36 1   
    26    12    37 1   
    27    13    31 1   
    28    13    32 1   
    29    14    15 ar  
    30    14    19 ar  
    31    15    16 ar  
    32    15    38 1   
    33    16    17 ar  
    34    16    40 1   
    35    17    18 ar  
    36    17    20 1   
    37    18    19 ar  
    38    18    41 1   
    39    19    39 1   
    40    20    21 2   
    41    20    24 1   
    42    21    22 1   
    43    21    42 1   
    44    22    23 1   
    45    22    44 1   
    46    23    24 2   
    47    24    43 1   
@<TRIPOS>SUBSTRUCTURE
     1 GVP         1 TEMP              0 ****  ****    0 ROOT
