@<TRIPOS>MOLECULE
molecule
   44    47     1     0     0
SMALL
bcc


@<TRIPOS>ATOM
      1 Cl1          0.0000     0.0000     0.0000 cl         1 GVP      -0.105400
      2 C2           1.7210     0.0000     0.0000 ca         1 GVP       0.019400
      3 C3           2.4180     0.0000     1.2080 ca         1 GVP      -0.119500
      4 C4           3.8130    -0.0010     1.2080 ca         1 GVP      -0.115000
      5 C5           4.5080    -0.0020     0.0000 ca         1 GVP      -0.063300
      6 C6           3.8130    -0.0020    -1.2080 ca         1 GVP      -0.115000
      7 C7           2.4180    -0.0010    -1.2080 ca         1 GVP      -0.119500
      8 C8           6.0630    -0.0010     0.0000 c3         1 GVP       0.034600
      9 C9           6.5610     0.8340    -1.2350 c3         1 GVP      -0.067900
     10 C10          8.0700     1.1090    -1.2510 c3         1 GVP       0.161800
     11 N11          8.5200     1.7630    -0.0270 n7         1 GVP      -0.817200
     12 C12          8.1770     0.9710     1.1490 c3         1 GVP       0.161800
     13 C13          6.6640     0.7610     1.2370 c3         1 GVP      -0.067900
     14 C14          6.5300    -1.4840     0.0010 ca         1 GVP      -0.069300
     15 C15          6.7380    -2.1450     1.2100 ca         1 GVP      -0.123500
     16 C16          7.1570    -3.4770     1.2110 ca         1 GVP      -0.118500
     17 C17          7.3660    -4.1430     0.0030 ca         1 GVP      -0.005000
     18 C18          7.1570    -3.4790    -1.2050 ca         1 GVP      -0.118500
     19 C19          6.7390    -2.1470    -1.2060 ca         1 GVP      -0.123500
     20 C20          7.7960    -5.5120     0.0050 cc         1 GVP      -0.215300
     21 C21          7.4840    -6.4140    -0.9780 cd         1 GVP      -0.146300
     22 N22          8.0760    -7.5850    -0.6060 na         1 GVP      -0.018600
     23 N23          8.7540    -7.5060     0.5530 nd         1 GVP      -0.486800
     24 C24          8.5770    -6.2340     0.9210 cc         1 GVP       0.301200
     25 H3           1.8770     0.0010     2.1470 ha         1 GVP       0.143500
     26 H7           1.8770    -0.0010    -2.1460 ha         1 GVP       0.143500
     27 H4           4.3550    -0.0010     2.1460 ha         1 GVP       0.139000
     28 H6           4.3560    -0.0020    -2.1460 ha         1 GVP       0.139000
     29 H9C1         6.0420     1.7850    -1.2350 hc         1 GVP       0.049950
     30 H9C2         6.3030     0.2950    -2.1380 hc         1 GVP       0.049950
     31 H131         6.1850     1.7300     1.3120 hc         1 GVP       0.049950
     32 H132         6.4470     0.1910     2.1330 hc         1 GVP       0.049950
     33 H101         8.5970     0.1680    -1.3600 h1         1 GVP       0.033700
     34 H102         8.3020     1.7470    -2.0950 h1         1 GVP       0.033700
     35 H11          9.5120     1.8930    -0.0640 hn         1 GVP       0.356800
     36 H121         8.5160     1.4890     2.0370 h1         1 GVP       0.033700
     37 H122         8.6660     0.0070     1.0830 h1         1 GVP       0.033700
     38 H15          6.5750    -1.6270     2.1470 ha         1 GVP       0.133000
     39 H19          6.5760    -1.6310    -2.1440 ha         1 GVP       0.133000
     40 H16          7.3190    -3.9930     2.1500 ha         1 GVP       0.136000
     41 H18          7.3200    -3.9960    -2.1430 ha         1 GVP       0.136000
     42 H21          6.4900    -6.4230    -1.4090 h4         1 GVP       0.183000
     43 H24          9.3390    -5.7270     1.5000 h4         1 GVP       0.041100
     44 H22          8.0130    -8.4250    -1.1460 hn         1 GVP       0.316700
@<TRIPOS>BOND
     1    15    16 ar
     2    16    17 ar
     3    17    18 ar
     4    14    19 ar
     5    18    19 ar
     6    17    20 1
     7    20    21 2
     8    21    22 1
     9    22    23 1
    10    20    24 1
    11    23    24 2
    12     3    25 1
    13     7    26 1
    14     4    27 1
    15     6    28 1
    16     9    29 1
    17     9    30 1
    18    13    31 1
    19    13    32 1
    20    10    33 1
    21    10    34 1
    22    11    35 1
    23    12    36 1
    24    12    37 1
    25    15    38 1
    26     1     2 1
    27     2     3 ar
    28     3     4 ar
    29     4     5 ar
    30     5     6 ar
    31     2     7 ar
    32     6     7 ar
    33     5     8 1
    34     8     9 1
    35     9    10 1
    36    10    11 1
    37    11    12 1
    38     8    13 1
    39    12    13 1
    40     8    14 1
    41    14    15 ar
    42    19    39 1
    43    16    40 1
    44    18    41 1
    45    21    42 1
    46    24    43 1
    47    22    44 1
@<TRIPOS>SUBSTRUCTURE
     1 GVP         1 TEMP              0 ****  ****    0 ROOT
