@<TRIPOS>MOLECULE
molecule
   31    32     1     0     0
SMALL
bcc


@<TRIPOS>ATOM
      1 C1           0.0000     0.0000     0.0000 ca         1 GVQ      -0.115500
      2 C2           1.3950     0.0000     0.0000 ca         1 GVQ      -0.104000
      3 C3           2.0920     0.0000     1.2080 ca         1 GVQ       0.036400
      4 C4           1.3950     0.0010     2.4160 ca         1 GVQ      -0.104000
      5 C5          -2.6950    -3.7440     1.3150 ca         1 GVQ      -0.111000
      6 C6          -3.8280    -3.8900     0.5150 ca         1 GVQ      -0.098000
      7 C7          -4.4280    -2.7700    -0.0600 ca         1 GVQ      -0.111000
      8 C8          -3.8930    -1.5000     0.1670 ca         1 GVQ      -0.127500
      9 C9          -2.1890     0.0020     1.2090 c3         1 GVQ       0.015900
     10 C11         -2.1610    -2.4750     1.5410 ca         1 GVQ      -0.127500
     11 C12         -2.7600    -1.3530     0.9670 ca         1 GVQ      -0.149300
     12 C13         -0.6520     0.0010     1.2080 ca         1 GVQ      -0.099300
     13 C14          0.0000     0.0010     2.4160 ca         1 GVQ      -0.115500
     14 C15         -2.7740     0.7260     2.4600 c3         1 GVQ       0.084800
     15 N1          -4.2060     0.9010     2.3490 nz         1 GVQ      -0.797600
     16 Cl1          3.8130    -0.0010     1.2070 cl         1 GVQ      -0.057400
     17 H1          -0.5550    -0.0000    -0.9300 ha         1 GVQ       0.138500
     18 H2           1.9360    -0.0010    -0.9380 ha         1 GVQ       0.161500
     19 H4           1.9370     0.0010     3.3540 ha         1 GVQ       0.161500
     20 H14         -0.5550     0.0020     3.3470 ha         1 GVQ       0.138500
     21 H11         -1.2810    -2.3610     2.1630 ha         1 GVQ       0.131500
     22 H7          -5.3070    -2.8840    -0.6820 ha         1 GVQ       0.153500
     23 H8          -4.3580    -0.6290    -0.2790 ha         1 GVQ       0.131500
     24 H9          -2.4850     0.6020     0.3570 hc         1 GVQ       0.059700
     25 H151        -2.5560     0.1380     3.3430 hx         1 GVQ       0.111700
     26 H152        -2.3050     1.6980     2.5570 hx         1 GVQ       0.111700
     27 H1N1        -4.6610     0.0210     2.4950 hn         1 GVQ       0.457133
     28 H1N2        -4.5160     1.5550     3.0400 hn         1 GVQ       0.457133
     29 H5          -2.2300    -4.6150     1.7600 ha         1 GVQ       0.153500
     30 H13         -4.4310     1.2340     1.4330 hn         1 GVQ       0.457133
     31 H6          -4.2430    -4.8760     0.3400 ha         1 GVQ       0.156000
@<TRIPOS>BOND
     1     1     2 ar
     2     2     3 ar
     3     3     4 ar
     4     5     6 ar
     5     6     7 ar
     6     7     8 ar
     7     5    10 ar
     8     8    11 ar
     9     9    11 1
    10    10    11 ar
    11     1    12 ar
    12     9    12 1
    13     4    13 ar
    14    12    13 ar
    15     9    14 1
    16    14    15 1
    17     3    16 1
    18     1    17 1
    19     2    18 1
    20     4    19 1
    21    13    20 1
    22     5    29 1
    23     6    31 1
    24    10    21 1
    25     7    22 1
    26     8    23 1
    27     9    24 1
    28    14    25 1
    29    14    26 1
    30    15    27 1
    31    15    28 1
    32    30    15 1
@<TRIPOS>SUBSTRUCTURE
     1 GVQ         1 TEMP              0 ****  ****    0 ROOT
