@<TRIPOS>MOLECULE
GVR
   50    53     1     0     0
SMALL
bcc


@<TRIPOS>ATOM
      1 O28          0.0000     0.0000     0.0000 o          1 GVR      -0.619100
      2 C27          1.2250     0.0000     0.0000 c          1 GVR       0.549100
      3 N29          1.8800     0.0080    -1.1530 ns         1 GVR      -0.008400
      4 O30          1.1110     0.0200    -2.3240 oh         1 GVR      -0.443100
      5 C26          1.9940     0.0000     1.2880 c3         1 GVR       0.127500
      6 C25          2.1020    -1.3940     1.8810 c3         1 GVR       0.026900
      7 C15          2.5710    -1.3490     3.3240 ca         1 GVR      -0.095300
      8 C16          3.7830    -1.9430     3.6780 ca         1 GVR      -0.096000
      9 C17          4.2250    -1.9310     5.0010 ca         1 GVR      -0.088000
     10 C20          3.4510    -1.3330     5.9870 ca         1 GVR      -0.036000
     11 C21          3.8550    -1.2950     7.3240 ca         1 GVR      -0.093000
     12 C19          2.1660    -0.7060     5.6150 ca         1 GVR      -0.030000
     13 C24          1.3810    -0.1020     6.5900 ca         1 GVR      -0.084000
     14 C23          1.8240    -0.0850     7.9160 ca         1 GVR      -0.098000
     15 C22          3.0330    -0.6860     8.2710 ca         1 GVR      -0.100000
     16 C18          1.7690    -0.7470     4.2850 ca         1 GVR      -0.087000
     17 N1           3.3360     0.4990     1.1250 n7         1 GVR      -0.594100
     18 S2           3.6330     2.0240     1.4030 sy         1 GVR       1.085200
     19 O13          2.6730     2.8260     0.7010 o          1 GVR      -0.598800
     20 O14          4.9790     2.2910     0.9840 o          1 GVR      -0.598800
     21 C3           3.5240     2.2570     2.9990 ca         1 GVR      -0.249500
     22 C4           4.4990     1.6710     3.8210 ca         1 GVR       0.010000
     23 C5           4.4780     1.8300     5.2120 ca         1 GVR      -0.116000
     24 C8           3.4800     2.5850     5.8170 ca         1 GVR       0.021000
     25 C9           3.4350     2.7650     7.2000 ca         1 GVR      -0.107000
     26 C7           2.4430     3.2090     4.9630 ca         1 GVR      -0.086000
     27 C6           2.4980     3.0250     3.5760 ca         1 GVR       0.076000
     28 C12          1.4430     3.9650     5.5810 ca         1 GVR      -0.057000
     29 C11          1.4300     4.1070     6.9750 ca         1 GVR      -0.113000
     30 C10          2.4160     3.5270     7.7720 ca         1 GVR      -0.067000
     31 H29          2.8380    -0.2810    -1.1860 hn         1 GVR       0.151500
     32 H26          1.4750     0.6350     1.9960 h1         1 GVR       0.064700
     33 H30          1.6680     0.1930    -3.0640 ho         1 GVR       0.397000
     34 H251         1.1300    -1.8720     1.8400 hc         1 GVR       0.030700
     35 H252         2.8070    -1.9730     1.2970 hc         1 GVR       0.030700
     36 H1           4.0370    -0.0780     0.7030 hn         1 GVR       0.351800
     37 H16          4.3860    -2.4240     2.9170 ha         1 GVR       0.104000
     38 H18          0.8190    -0.3150     3.9960 ha         1 GVR       0.115000
     39 H17          5.1680    -2.3970     5.2610 ha         1 GVR       0.107000
     40 H21          4.7890    -1.7540     7.6260 ha         1 GVR       0.108000
     41 H22          3.3510    -0.6580     9.3060 ha         1 GVR       0.101000
     42 H24          0.4410     0.3660     6.3220 ha         1 GVR       0.111000
     43 H23          1.2120     0.3790     8.6800 ha         1 GVR       0.104000
     44 H4           5.2900     1.0860     3.3680 ha         1 GVR       0.114000
     45 H6           1.7500     3.4850     2.9420 ha         1 GVR       0.131000
     46 H5           5.2450     1.3640     5.8190 ha         1 GVR       0.115000
     47 H9           4.1960     2.3190     7.8290 ha         1 GVR       0.113000
     48 H10          2.3800     3.6540     8.8480 ha         1 GVR       0.104000
     49 H12          0.6660     4.4250     4.9830 ha         1 GVR       0.111000
     50 H11          0.6480     4.6950     7.4410 ha         1 GVR       0.107000
@<TRIPOS>BOND
     1     1     2 2   
     2     2     3 1   
     3     2     5 1   
     4     3     4 1   
     5     3    31 1   
     6     4    33 1   
     7     5     6 1   
     8     5    17 1   
     9     5    32 1   
    10     6     7 1   
    11     6    34 1   
    12     6    35 1   
    13     7     8 ar  
    14     7    16 ar  
    15     8     9 ar  
    16     8    37 1   
    17     9    10 ar  
    18     9    39 1   
    19    10    11 ar  
    20    10    12 ar  
    21    11    15 ar  
    22    11    40 1   
    23    12    13 ar  
    24    12    16 ar  
    25    13    14 ar  
    26    13    42 1   
    27    14    15 ar  
    28    14    43 1   
    29    15    41 1   
    30    16    38 1   
    31    17    18 1   
    32    17    36 1   
    33    18    19 2   
    34    18    20 2   
    35    18    21 1   
    36    21    22 ar  
    37    21    27 ar  
    38    22    23 ar  
    39    22    44 1   
    40    23    24 ar  
    41    23    46 1   
    42    24    25 ar  
    43    24    26 ar  
    44    25    30 ar  
    45    25    47 1   
    46    26    27 ar  
    47    26    28 ar  
    48    27    45 1   
    49    28    29 ar  
    50    28    49 1   
    51    29    30 ar  
    52    29    50 1   
    53    30    48 1   
@<TRIPOS>SUBSTRUCTURE
     1 GVR         1 TEMP              0 ****  ****    0 ROOT
