@<TRIPOS>MOLECULE
GVS
   52    51     1     0     0
SMALL
bcc


@<TRIPOS>ATOM
      1 CAE         1.3990   -2.5120    0.4460 cx        1 GVS     -0.008900
      2 CAO         2.3770   -2.7710    1.5220 cx        1 GVS     -0.008900
      3 CAF         1.6710   -1.4180    1.4920 cx        1 GVS     -0.554900
      4 SAG         0.5260   -0.8930    2.5190 s6        1 GVS      1.472000
      5 OAP         0.2070    0.4480    2.3580 o         1 GVS     -0.579800
      6 OAB        -0.4530   -1.8260    2.7970 o         1 GVS     -0.579800
      7 NAH         1.4920   -0.8300    4.0560 nh        1 GVS     -0.350600
      8 CAI         1.5980    0.2440    4.8060 ce        1 GVS      0.514100
      9 CAJ         2.2460    0.3380    6.0330 cg        1 GVS     -0.306200
     10 CAK         2.7880    0.4670    7.1090 ch        1 GVS      0.075700
     11 CAL         3.4250    0.5350    8.3290 cd        1 GVS     -0.336300
     12 CAQ         4.0580   -0.6240    8.8660 cc        1 GVS      0.228600
     13 CAC         3.5440    1.7290    9.1400 cd        1 GVS      0.645500
     14 NAA         2.9020    2.9800    8.6520 n4        1 GVS     -0.805600
     15 NAD         4.1770    1.8020   10.2850 nc        1 GVS     -0.600100
     16 CAM         4.8210    0.6370   10.8050 c         1 GVS      0.823900
     17 OAN         5.4500    0.6630   11.8590 o         1 GVS     -0.427500
     18 NAR         4.7090   -0.6030   10.0380 n         1 GVS     -0.226200
     19 CAT         5.3750   -1.7830   10.5420 c2        1 GVS     -0.098600
     20 CAS         3.2680   -5.3090   13.9860 c         1 GVS      0.594700
     21 OAZ         3.5650   -4.5090   13.0970 o         1 GVS     -0.591100
     22 CBA         4.7580   -2.6320   11.3820 c2        1 GVS     -0.080000
     23 CAU         6.8050   -1.9620   10.1310 c3        1 GVS     -0.103200
     24 CAV         6.9790   -2.0840    8.6440 c         1 GVS      0.653100
     25 OBB         6.2010   -1.6930    7.7600 o         1 GVS     -0.627000
     26 OAW         8.1330   -2.6970    8.3060 os        1 GVS     -0.403900
     27 CAX         8.4600   -2.8410    6.9080 c3        1 GVS      0.138400
     28 CAY         9.0770   -1.5760    6.3710 c3        1 GVS     -0.129100
     29 HAE1        0.4080   -3.0100    0.4720 hc        1 GVS      0.113200
     30 HAE2        1.7460   -2.3190   -0.5880 hc        1 GVS      0.113200
     31 HAO1        2.1140   -3.4740    2.3360 hc        1 GVS      0.113200
     32 HAO2        3.4600   -2.7860    1.2880 hc        1 GVS      0.113200
     33 HAF         2.3190   -0.5930    1.0920 h1        1 GVS      0.178700
     34 HAH         1.9150   -1.6820    4.3760 hn        1 GVS      0.312700
     35 HAI1        1.1110    1.1880    4.4160 h4        1 GVS      0.106800
     36 HAI2        0.1650    2.6900    3.4680 ha        1 GVS      0.004000
     37 HAQ         4.0340   -1.5850    8.2950 h4        1 GVS      0.234000
     38 HAA1        3.3060    3.2250    7.7400 hn        1 GVS      0.486133
     39 HAA2        1.8930    2.8200    8.5560 hn        1 GVS      0.486133
     40 HAS1        3.9950   -6.0540   14.3720 h4        1 GVS     -0.001800
     41 HAS2        2.2570   -5.3250   14.4450 h4        1 GVS     -0.001800
     42 HBA1        5.2730   -3.5290   11.7700 ha        1 GVS      0.177000
     43 HBA2        3.7270   -2.5180   11.7530 ha        1 GVS      0.177000
     44 HAU1        7.4310   -1.0940   10.4850 hc        1 GVS      0.123200
     45 HAU2        7.2190   -2.8870   10.6250 hc        1 GVS      0.123200
     46 HAX1        9.1970   -3.6910    6.9270 h1        1 GVS      0.076700
     47 HAX2        7.5410   -3.1300    6.3360 h1        1 GVS      0.076700
     48 HAY1        9.4270   -1.7510    5.3250 hc        1 GVS      0.057033
     49 HAY2        8.3300   -0.7470    6.3710 hc        1 GVS      0.057033
     50 HAY3        9.9520   -1.2690    6.9940 hc        1 GVS      0.057033
     51 HAH2       -0.1720    2.6880    2.8770 ha        1 GVS      0.004000
     52 HAA3        3.0590    3.7630    9.3120 hn        1 GVS      0.486133
@<TRIPOS>BOND
     1    1    2 1   
     2    1    3 1   
     3    1   29 1   
     4    1   30 1   
     5    2    3 1   
     6    2   31 1   
     7    2   32 1   
     8    3    4 1   
     9    3   33 1   
    10    4    5 2   
    11    4    6 2   
    12    4    7 1   
    13    7    8 2   
    14    7   34 1   
    15    8    9 1   
    16    8   35 1   
    17    9   10 3   
    18   10   11 1   
    19   11   12 2   
    20   11   13 1   
    21   12   18 1   
    22   12   37 1   
    23   13   14 1   
    24   13   15 2   
    25   14   38 1   
    26   14   39 1   
    27   14   52 1   
    28   15   16 1   
    29   16   17 2   
    30   16   18 1   
    31   18   19 1   
    32   19   22 2   
    33   19   23 1   
    34   20   21 2   
    35   20   40 1   
    36   20   41 1   
    37   22   42 1   
    38   22   43 1   
    39   23   24 1   
    40   23   44 1   
    41   23   45 1   
    42   24   25 2   
    43   24   26 1   
    44   26   27 1   
    45   27   28 1   
    46   27   46 1   
    47   27   47 1   
    48   28   48 1   
    49   28   49 1   
    50   28   50 1   
    51   36   51 1   
@<TRIPOS>SUBSTRUCTURE
     1 GVS         1 TEMP              0 ****  ****    0 ROOT
