@<TRIPOS>MOLECULE
molecule
   51    53     1     0     0
SMALL
bcc


@<TRIPOS>ATOM
      1 CAE          0.0000     0.0000     0.0000 cx         1 GVS      -0.231400
      2 CAO          1.5300     0.0000     0.0000 cx         1 GVS      -0.231400
      3 CAF          0.7640     0.0000     1.3250 cx         1 GVS       0.491100
      4 SAG          0.7650    -1.5350     2.2920 s6         1 GVS       1.697900
      5 OAP         -0.5340    -1.8010     2.8050 o          1 GVS      -0.636300
      6 OAB          1.5100    -2.5440     1.6250 o          1 GVS      -0.636300
      7 NAH          1.6690    -1.1790     3.6320 n7         1 GVS      -0.692100
      8 CAI          1.1940    -0.1770     4.5910 c3         1 GVS       0.117900
      9 CAJ          1.9600    -0.2950     5.8430 c1         1 GVS      -0.003100
     10 CAK          2.5810    -0.4050     6.8340 cg         1 GVS      -0.309300
     11 CAL          3.3100    -0.2210     8.0480 cc         1 GVS      -0.008300
     12 CAQ          4.8590    -0.2930     8.0700 cd         1 GVS       0.159600
     13 CAC          2.3970     0.0400     9.2400 cc         1 GVS       0.344500
     14 NAA          1.1600    -0.0100     9.4000 nz         1 GVS      -0.631600
     15 NAD          3.1550     0.2690    10.7100 nd         1 GVS      -0.694100
     16 CAM          4.5240     0.2190    10.8070 c          1 GVS       0.799900
     17 OAN          5.1680     0.3880    11.8760 o          1 GVS      -0.638500
     18 NAR          5.2380    -0.0560     9.4820 n          1 GVS      -0.350000
     19 CAT          6.6530    -0.0570     9.8580 cy         1 GVS      -0.001600
     20 CAS          7.0150    -1.1170    10.9150 cy         1 GVS      -0.125600
     21 OAZ          7.4920    -0.1400    11.4230 oq         1 GVS      -0.270600
     22 CBA          7.5500    -0.8680     8.9020 cy         1 GVS      -0.125600
     23 CAU          7.1890     1.3410    10.1740 c3         1 GVS       0.002600
     24 CAV          8.5290     0.7430    10.9030 c          1 GVS       0.759100
     25 OBB          8.5850     0.2160    11.8290 o          1 GVS      -0.185000
     26 OAW          9.6910     1.2400    10.5740 os         1 GVS      -0.441900
     27 CAX         10.7520     1.4530    11.4960 c3         1 GVS       0.105400
     28 CAY         11.9270     2.4650    10.9130 c3         1 GVS      -0.024100
     29 HAE1        -0.2030    -1.0240    -0.2890 hc         1 GVS       0.129450
     30 HAE2        -0.5220     0.6520    -0.6890 hc         1 GVS       0.129450
     31 HAO1         1.6530     1.0330    -0.3020 hc         1 GVS       0.129450
     32 HAO2         1.8880    -0.8930    -0.4970 hc         1 GVS       0.129450
     33 HAF          0.9760    -0.8550     1.9560 h1         1 GVS      -0.803300
     34 HAH          1.5040    -1.8060     4.3950 hn         1 GVS       0.373800
     35 HAI1         0.2300     0.3140     4.6530 h1         1 GVS       0.140200
     36 HAI2         1.4610    -0.6330     5.5370 h1         1 GVS       0.140200
     37 HAQ          5.5000    -0.1120     7.2160 h4         1 GVS       0.239000
     38 HAA1         0.6290     0.2970    10.1910 hn         1 GVS       0.433800
     39 HAA2         0.7850    -0.9190     9.2150 hn         1 GVS       0.433800
     40 HAS1         7.6780    -1.9300    10.6450 h1         1 GVS       0.074950
     41 HAS2         6.0130    -1.3680    11.2420 h1         1 GVS       0.074950
     42 HBA1         8.0780    -1.6170     9.4790 h1         1 GVS       0.074950
     43 HBA2         7.0580    -1.1210     7.9700 h1         1 GVS       0.074950
     44 HAU1         6.5570     1.8720    10.8750 hc         1 GVS       0.119200
     45 HAU2         7.4650     1.8630     9.2660 hc         1 GVS       0.119200
     46 HAX1        10.9150     0.5490    12.0700 h1         1 GVS       0.042700
     47 HAX2        10.1260     2.1130    12.0860 h1         1 GVS       0.042700
     48 HAY1        12.3950     2.6600    11.8700 hc         1 GVS       0.075033
     49 HAY2        11.3390     3.3390    10.6610 hc         1 GVS       0.075033
     50 HAY3        12.2200     1.8960    10.0390 hc         1 GVS       0.075033
     51 HAA3         0.7190     0.0130     8.5020 hn         1 GVS       0.433800
@<TRIPOS>BOND
     1     1     2 1
     2     1     3 1
     3     2     3 1
     4     3     4 1
     5     4     5 2
     6     4     6 2
     7     4     7 1
     8     7     8 1
     9     8     9 1
    10     9    10 3
    11    10    11 1
    12    11    12 2
    13    11    13 1
    14    12    18 1
    15    13    14 1
    16    13    15 2
    17    15    16 1
    18    16    17 2
    19    16    18 1
    20    18    19 1
    21    19    20 1
    22    19    22 1
    23    19    23 1
    24    20    21 1
    25    21    22 1
    26    23    24 1
    27    24    25 2
    28    24    26 1
    29    26    27 1
    30    27    28 1
    31     1    29 1
    32     1    30 1
    33     2    31 1
    34     2    32 1
    35     3    33 1
    36     7    34 1
    37     8    35 1
    38     8    36 1
    39    12    37 1
    40    14    38 1
    41    14    39 1
    42    20    40 1
    43    20    41 1
    44    22    42 1
    45    22    43 1
    46    23    44 1
    47    23    45 1
    48    27    46 1
    49    27    47 1
    50    28    48 1
    51    28    49 1
    52    28    50 1
    53    51    14 1
@<TRIPOS>SUBSTRUCTURE
     1 GVS         1 TEMP              0 ****  ****    0 ROOT
