@<TRIPOS>MOLECULE
molecule
   96    95     1     0     0
SMALL
bcc


@<TRIPOS>ATOM
      1 C3           0.0000     0.0000     0.0000 c3         1 GVT      -0.092100
      2 C4           1.5300     0.0000     0.0000 c3         1 GVT      -0.084400
      3 C5           2.0390     0.0000     1.4420 c3         1 GVT      -0.081400
      4 C6           3.5700     0.0000     1.4430 c3         1 GVT      -0.082400
      5 C7           4.0790     0.0000     2.8860 c3         1 GVT      -0.081400
      6 C8           5.6090     0.0010     2.8860 c3         1 GVT      -0.082400
      7 C9           6.1190     0.0010     4.3290 c3         1 GVT      -0.080400
      8 C10          7.6490     0.0010     4.3290 c3         1 GVT      -0.081400
      9 C11          8.1590     0.0010     5.7710 c3         1 GVT      -0.080400
     10 C12          9.6880     0.0010     5.7710 c3         1 GVT       0.138400
     11 O13         10.1640     0.0010     7.1190 os         1 GVT      -0.421600
     12 C14         11.5890     0.0020     7.2320 c3         1 GVT       0.142400
     13 C15         11.9840     0.0020     8.7110 c3         1 GVT       0.141400
     14 O16         11.5560    -1.2190     9.3180 os         1 GVT      -0.408600
     15 C17         11.8770    -1.3220    10.7060 c3         1 GVT       0.141400
     16 C18         11.3750    -2.6610    11.2490 c3         1 GVT       0.142400
     17 O19         12.0870    -3.7270    10.6170 os         1 GVT      -0.410600
     18 C20         11.6920    -5.0290    11.0550 c3         1 GVT       0.141400
     19 C21         12.5150    -6.0870    10.3160 c3         1 GVT       0.141400
     20 O22         13.8900    -5.9640    10.6860 os         1 GVT      -0.410600
     21 C23         14.7500    -6.9110    10.0470 c3         1 GVT       0.141400
     22 C24         16.1900    -6.6880    10.5150 c3         1 GVT       0.141400
     23 O25         16.2860    -6.9710    11.9120 os         1 GVT      -0.409600
     24 C26         17.5970    -6.7930    12.4520 c3         1 GVT       0.142400
     25 C27         17.5820    -7.1210    13.9460 c3         1 GVT       0.141400
     26 O28         17.2850    -8.5080    14.1260 os         1 GVT      -0.410600
     27 C29         17.2460    -8.9210    15.4930 c3         1 GVT       0.142400
     28 C30         16.9210   -10.4150    15.5650 c3         1 GVT       0.142400
     29 O31         17.9840   -11.1630    14.9730 os         1 GVT      -0.410600
     30 C32         17.7800   -12.5770    14.9890 c3         1 GVT       0.141400
     31 C33         18.9730   -13.2740    14.3330 c3         1 GVT       0.141400
     32 O34         20.1450   -13.0530    15.1220 os         1 GVT      -0.410600
     33 C35         21.3240   -13.6640    14.5950 c3         1 GVT       0.142400
     34 C36         22.5080   -13.3650    15.5140 c3         1 GVT       0.141400
     35 O37         22.2960   -13.9850    16.7830 os         1 GVT      -0.407600
     36 C38         23.3510   -13.7660    17.7220 c3         1 GVT       0.141400
     37 C39         23.0190   -14.4720    19.0380 c3         1 GVT       0.143400
     38 OXT         22.9890   -15.8850    18.8250 oh         1 GVT      -0.599800
     39 H3C1        -0.3610     0.0080    -1.0210 hc         1 GVT       0.032367
     40 H3C2        -0.3610    -0.8880     0.5040 hc         1 GVT       0.032367
     41 H3C3        -0.3610     0.8810     0.5170 hc         1 GVT       0.032367
     42 H4C1         1.8910    -0.8850    -0.5110 hc         1 GVT       0.039700
     43 H4C2         1.8910     0.8850    -0.5110 hc         1 GVT       0.039700
     44 H5C1         1.6780    -0.8850     1.9530 hc         1 GVT       0.040700
     45 H5C2         1.6780     0.8840     1.9530 hc         1 GVT       0.040700
     46 H6C1         3.9310     0.8850     0.9330 hc         1 GVT       0.040700
     47 H6C2         3.9320    -0.8840     0.9320 hc         1 GVT       0.040700
     48 H7C1         3.7170     0.8840     3.3960 hc         1 GVT       0.041700
     49 H7C2         3.7180    -0.8850     3.3960 hc         1 GVT       0.041700
     50 H8C1         5.9700     0.8860     2.3760 hc         1 GVT       0.040700
     51 H8C2         5.9710    -0.8830     2.3750 hc         1 GVT       0.040700
     52 H9C1         5.7580     0.8850     4.8400 hc         1 GVT       0.043200
     53 H9C2         5.7590    -0.8840     4.8390 hc         1 GVT       0.043200
     54 H101         8.0110    -0.8830     3.8180 hc         1 GVT       0.040700
     55 H102         8.0100     0.8860     3.8180 hc         1 GVT       0.040700
     56 H111         7.7980    -0.8830     6.2820 hc         1 GVT       0.053700
     57 H112         7.7980     0.8860     6.2820 hc         1 GVT       0.053700
     58 H121        10.0500    -0.8830     5.2600 h1         1 GVT       0.020700
     59 H122        10.0500     0.8860     5.2600 h1         1 GVT       0.020700
     60 H141        11.9890     0.8870     6.7520 h1         1 GVT       0.032200
     61 H142        11.9900    -0.8820     6.7510 h1         1 GVT       0.032200
     62 H151        13.0600     0.0900     8.7970 h1         1 GVT       0.030700
     63 H152        11.5120     0.8390     9.2110 h1         1 GVT       0.030700
     64 H171        12.9510    -1.2600    10.8340 h1         1 GVT       0.031200
     65 H172        11.4020    -0.5130    11.2480 h1         1 GVT       0.031200
     66 H181        10.3170    -2.7610    11.0420 h1         1 GVT       0.031700
     67 H182        11.5400    -2.7020    12.3190 h1         1 GVT       0.031700
     68 H201        11.8630    -5.1180    12.1210 h1         1 GVT       0.031700
     69 H202        10.6400    -5.1780    10.8440 h1         1 GVT       0.031700
     70 H211        12.4140    -5.9410     9.2470 h1         1 GVT       0.031700
     71 H212        12.1560    -7.0740    10.5810 h1         1 GVT       0.031700
     72 H231        14.6950    -6.7820     8.9730 h1         1 GVT       0.031700
     73 H232        14.4370    -7.9150    10.3060 h1         1 GVT       0.031700
     74 H241        16.8530    -7.3470     9.9670 h1         1 GVT       0.031700
     75 H242        16.4730    -5.6580    10.3340 h1         1 GVT       0.031700
     76 H261        18.2890    -7.4530    11.9440 h1         1 GVT       0.031700
     77 H262        17.9090    -5.7650    12.3120 h1         1 GVT       0.031700
     78 H271        16.8260    -6.5230    14.4400 h1         1 GVT       0.031700
     79 H272        18.5520    -6.9020    14.3740 h1         1 GVT       0.031700
     80 H291        16.4830    -8.3600    16.0190 h1         1 GVT       0.031200
     81 H292        18.2090    -8.7390    15.9530 h1         1 GVT       0.031200
     82 H301        16.8050   -10.7100    16.6010 h1         1 GVT       0.031700
     83 H302        16.0000   -10.6100    15.0280 h1         1 GVT       0.031700
     84 H321        17.6820   -12.9170    16.0130 h1         1 GVT       0.031700
     85 H322        16.8760   -12.8180    14.4420 h1         1 GVT       0.031700
     86 H331        18.7780   -14.3370    14.2650 h1         1 GVT       0.032200
     87 H332        19.1250   -12.8700    13.3390 h1         1 GVT       0.032200
     88 H351        21.1780   -14.7360    14.5320 h1         1 GVT       0.032200
     89 H352        21.5250   -13.2680    13.6070 h1         1 GVT       0.032200
     90 H361        22.6000   -12.2930    15.6470 h1         1 GVT       0.031200
     91 H362        23.4170   -13.7520    15.0700 h1         1 GVT       0.031200
     92 H381        23.4610   -12.7030    17.9010 h1         1 GVT       0.029200
     93 H382        24.2770   -14.1620    17.3240 h1         1 GVT       0.029200
     94 H391        22.0500   -14.1400    19.3910 h1         1 GVT       0.030200
     95 H392        23.7740   -14.2330    19.7770 h1         1 GVT       0.030200
     96 HXT         22.9940   -16.3280    19.6580 ho         1 GVT       0.398000
@<TRIPOS>BOND
     1     1     2 1
     2     2     3 1
     3     3     4 1
     4     4     5 1
     5     5     6 1
     6     6     7 1
     7     7     8 1
     8     8     9 1
     9     9    10 1
    10    10    11 1
    11    11    12 1
    12    12    13 1
    13    13    14 1
    14    14    15 1
    15    15    16 1
    16    16    17 1
    17    17    18 1
    18    18    19 1
    19    19    20 1
    20    20    21 1
    21    21    22 1
    22    22    23 1
    23    23    24 1
    24    24    25 1
    25    25    26 1
    26    26    27 1
    27    27    28 1
    28    28    29 1
    29    29    30 1
    30    30    31 1
    31    31    32 1
    32    32    33 1
    33    33    34 1
    34    34    35 1
    35    35    36 1
    36    36    37 1
    37    37    38 1
    38     1    39 1
    39     1    40 1
    40     1    41 1
    41     2    42 1
    42     2    43 1
    43     3    44 1
    44     3    45 1
    45     4    46 1
    46     4    47 1
    47     5    48 1
    48     5    49 1
    49     6    50 1
    50     6    51 1
    51     7    52 1
    52     7    53 1
    53     8    54 1
    54     8    55 1
    55     9    56 1
    56     9    57 1
    57    10    58 1
    58    10    59 1
    59    12    60 1
    60    12    61 1
    61    13    62 1
    62    13    63 1
    63    15    64 1
    64    15    65 1
    65    16    66 1
    66    16    67 1
    67    18    68 1
    68    18    69 1
    69    19    70 1
    70    19    71 1
    71    21    72 1
    72    21    73 1
    73    22    74 1
    74    22    75 1
    75    24    76 1
    76    24    77 1
    77    25    78 1
    78    25    79 1
    79    27    80 1
    80    27    81 1
    81    28    82 1
    82    28    83 1
    83    30    84 1
    84    30    85 1
    85    31    86 1
    86    31    87 1
    87    33    88 1
    88    33    89 1
    89    34    90 1
    90    34    91 1
    91    36    92 1
    92    36    93 1
    93    37    94 1
    94    37    95 1
    95    38    96 1
@<TRIPOS>SUBSTRUCTURE
     1 GVT         1 TEMP              0 ****  ****    0 ROOT
