@<TRIPOS>MOLECULE
GVT
   96    95     1     0     0
SMALL
bcc


@<TRIPOS>ATOM
      1 C3         -1.6360    4.4720    0.9780 c3        1 GVT     -0.092100
      2 C4         -0.7550    3.2540    0.8650 c3        1 GVT     -0.080400
      3 C5          0.4960    3.3930    1.7060 c3        1 GVT     -0.079400
      4 C6          1.3770    2.1690    1.5890 c3        1 GVT     -0.079400
      5 C7          2.6280    2.3090    2.4310 c3        1 GVT     -0.079400
      6 C8          3.5100    1.0850    2.3130 c3        1 GVT     -0.079400
      7 C9          4.7600    1.2260    3.1540 c3        1 GVT     -0.078400
      8 C10         5.6420    0.0010    3.0360 c3        1 GVT     -0.078400
      9 C11         6.8900    0.1450    3.8790 c3        1 GVT     -0.083400
     10 C12         7.7630   -1.0890    3.7480 c3        1 GVT      0.132400
     11 O13         8.9080   -0.8690    4.5710 os        1 GVT     -0.428600
     12 C14         9.8250   -1.9580    4.5200 c3        1 GVT      0.126400
     13 C15        10.9070   -1.6600    5.5540 c3        1 GVT      0.127400
     14 O16        10.7490   -2.6240    6.5930 os        1 GVT     -0.429600
     15 C17        11.6020   -2.3620    7.7060 c3        1 GVT      0.127400
     16 C18        11.4590   -3.5510    8.6500 c3        1 GVT      0.127400
     17 O19        12.6600   -4.3110    8.5300 os        1 GVT     -0.429600
     18 C20        12.5900   -5.5480    9.2360 c3        1 GVT      0.127400
     19 C21        13.9810   -6.1690    9.1620 c3        1 GVT      0.127400
     20 O22        14.5420   -6.0630   10.4690 os        1 GVT     -0.429600
     21 C23        15.9100   -6.4650   10.5030 c3        1 GVT      0.127400
     22 C24        16.3200   -6.4840   11.9720 c3        1 GVT      0.127400
     23 O25        16.4220   -7.8560   12.3460 os        1 GVT     -0.429600
     24 C26        16.6470   -8.0190   13.7450 c3        1 GVT      0.127400
     25 C27        16.9040   -9.5050   13.9720 c3        1 GVT      0.127400
     26 O28        18.2990   -9.6400   14.2340 os        1 GVT     -0.429600
     27 C29        18.7060  -11.0060   14.2960 c3        1 GVT      0.127400
     28 C30        20.1620  -11.0030   14.7490 c3        1 GVT      0.127400
     29 O31        20.1680  -11.4750   16.0950 os        1 GVT     -0.429600
     30 C32        21.4560  -11.3730   16.6980 c3        1 GVT      0.127400
     31 C33        21.3580  -12.0670   18.0520 c3        1 GVT      0.127400
     32 O34        22.0460  -13.3100   17.9210 os        1 GVT     -0.428600
     33 C35        21.8860  -14.1390   19.0700 c3        1 GVT      0.127400
     34 C36        22.7970  -15.3440   18.8640 c3        1 GVT      0.128400
     35 O37        23.9000  -15.1760   19.7530 os        1 GVT     -0.438600
     36 C38        24.9220  -16.1480   19.5410 c3        1 GVT      0.087400
     37 C39        25.9900  -15.8770   20.5950 c3        1 GVT      0.131400
     38 OXT        25.5130  -16.1330   21.8980 oh        1 GVT     -0.600800
     39 H3C1       -1.0930    5.3850    0.6330 hc        1 GVT      0.032700
     40 H3C2       -1.9530    4.6330    2.0370 hc        1 GVT      0.032700
     41 H3C3       -2.5520    4.3480    0.3510 hc        1 GVT      0.032700
     42 H4C1       -1.3260    2.3450    1.1920 hc        1 GVT      0.038700
     43 H4C2       -0.4680    3.0950   -0.2080 hc        1 GVT      0.038700
     44 H5C1        0.2110    3.5510    2.7800 hc        1 GVT      0.039700
     45 H5C2        1.0680    4.3020    1.3800 hc        1 GVT      0.039700
     46 H6C1        0.8050    1.2610    1.9150 hc        1 GVT      0.039700
     47 H6C2        1.6620    2.0120    0.5150 hc        1 GVT      0.039700
     48 H7C1        3.2000    3.2170    2.1050 hc        1 GVT      0.039700
     49 H7C2        2.3430    2.4660    3.5040 hc        1 GVT      0.039700
     50 H8C1        2.9370    0.1760    2.6390 hc        1 GVT      0.039700
     51 H8C2        3.7940    0.9280    1.2390 hc        1 GVT      0.039700
     52 H9C1        5.3320    2.1340    2.8290 hc        1 GVT      0.041700
     53 H9C2        4.4760    1.3820    4.2290 hc        1 GVT      0.041700
     54 H101        5.0690   -0.9070    3.3620 hc        1 GVT      0.040200
     55 H102        5.9260   -0.1550    1.9620 hc        1 GVT      0.040200
     56 H111        7.4720    1.0480    3.5580 hc        1 GVT      0.054700
     57 H112        6.6160    0.2930    4.9560 hc        1 GVT      0.054700
     58 H121        8.0880   -1.2420    2.6840 h1        1 GVT      0.025700
     59 H122        7.2190   -2.0070    4.0980 h1        1 GVT      0.025700
     60 H141        9.3000   -2.9210    4.7600 h1        1 GVT      0.041700
     61 H142       10.2700   -2.0190    3.4920 h1        1 GVT      0.041700
     62 H151       10.7900   -0.6230    5.9650 h1        1 GVT      0.043200
     63 H152       11.9270   -1.7730    5.0990 h1        1 GVT      0.043200
     64 H171       11.2670   -1.4190    8.2120 h1        1 GVT      0.043200
     65 H172       12.6650   -2.2500    7.3630 h1        1 GVT      0.043200
     66 H181       10.5720   -4.1790    8.3690 h1        1 GVT      0.043700
     67 H182       11.3520   -3.1980    9.7100 h1        1 GVT      0.043700
     68 H201       12.2890   -5.3690   10.3030 h1        1 GVT      0.043700
     69 H202       11.8360   -6.2130    8.7390 h1        1 GVT      0.043700
     70 H211       13.9120   -7.2520    8.8780 h1        1 GVT      0.043700
     71 H212       14.6210   -5.6230    8.4190 h1        1 GVT      0.043700
     72 H231       16.0280   -7.4810   10.0430 h1        1 GVT      0.043200
     73 H232       16.5260   -5.7190    9.9350 h1        1 GVT      0.043200
     74 H241       15.5530   -5.9640   12.6060 h1        1 GVT      0.043700
     75 H242       17.3180   -5.9900   12.1060 h1        1 GVT      0.043700
     76 H261       17.5310   -7.4080   14.0700 h1        1 GVT      0.043200
     77 H262       15.7330   -7.6890   14.3060 h1        1 GVT      0.043200
     78 H271       16.6180  -10.1010   13.0650 h1        1 GVT      0.043700
     79 H272       16.3260   -9.8700   14.8620 h1        1 GVT      0.043700
     80 H291       18.0630  -11.5700   15.0220 h1        1 GVT      0.043200
     81 H292       18.6150  -11.4640   13.2760 h1        1 GVT      0.043200
     82 H301       20.5940   -9.9680   14.6990 h1        1 GVT      0.043700
     83 H302       20.7720  -11.6970   14.1130 h1        1 GVT      0.043700
     84 H321       21.7150  -10.2890   16.8320 h1        1 GVT      0.043700
     85 H322       22.2290  -11.8680   16.0510 h1        1 GVT      0.043700
     86 H331       21.8600  -11.4510   18.8450 h1        1 GVT      0.044200
     87 H332       20.2860  -12.2430   18.3320 h1        1 GVT      0.044200
     88 H351       20.8150  -14.4660   19.1420 h1        1 GVT      0.043200
     89 H352       22.1720  -13.5760   19.9980 h1        1 GVT      0.043200
     90 H361       23.1590  -15.3930   17.8020 h1        1 GVT      0.045200
     91 H362       22.2580  -16.2930   19.1240 h1        1 GVT      0.045200
     92 H381       25.3470  -16.0350   18.5090 h1        1 GVT      0.039200
     93 H382       24.4940  -17.1780   19.6630 h1        1 GVT      0.039200
     94 H391       26.3470  -14.8160   20.5150 h1        1 GVT      0.053200
     95 H392       26.8510  -16.5840   20.4540 h1        1 GVT      0.053200
     96 HXT        24.7280  -15.5830   22.0230 ho        1 GVT      0.412000
@<TRIPOS>BOND
     1    1    2 1   
     2    1   39 1   
     3    1   40 1   
     4    1   41 1   
     5    2    3 1   
     6    2   42 1   
     7    2   43 1   
     8    3    4 1   
     9    3   44 1   
    10    3   45 1   
    11    4    5 1   
    12    4   46 1   
    13    4   47 1   
    14    5    6 1   
    15    5   48 1   
    16    5   49 1   
    17    6    7 1   
    18    6   50 1   
    19    6   51 1   
    20    7    8 1   
    21    7   52 1   
    22    7   53 1   
    23    8    9 1   
    24    8   54 1   
    25    8   55 1   
    26    9   10 1   
    27    9   56 1   
    28    9   57 1   
    29   10   11 1   
    30   10   58 1   
    31   10   59 1   
    32   11   12 1   
    33   12   13 1   
    34   12   60 1   
    35   12   61 1   
    36   13   14 1   
    37   13   62 1   
    38   13   63 1   
    39   14   15 1   
    40   15   16 1   
    41   15   64 1   
    42   15   65 1   
    43   16   17 1   
    44   16   66 1   
    45   16   67 1   
    46   17   18 1   
    47   18   19 1   
    48   18   68 1   
    49   18   69 1   
    50   19   20 1   
    51   19   70 1   
    52   19   71 1   
    53   20   21 1   
    54   21   22 1   
    55   21   72 1   
    56   21   73 1   
    57   22   23 1   
    58   22   74 1   
    59   22   75 1   
    60   23   24 1   
    61   24   25 1   
    62   24   76 1   
    63   24   77 1   
    64   25   26 1   
    65   25   78 1   
    66   25   79 1   
    67   26   27 1   
    68   27   28 1   
    69   27   80 1   
    70   27   81 1   
    71   28   29 1   
    72   28   82 1   
    73   28   83 1   
    74   29   30 1   
    75   30   31 1   
    76   30   84 1   
    77   30   85 1   
    78   31   32 1   
    79   31   86 1   
    80   31   87 1   
    81   32   33 1   
    82   33   34 1   
    83   33   88 1   
    84   33   89 1   
    85   34   35 1   
    86   34   90 1   
    87   34   91 1   
    88   35   36 1   
    89   36   37 1   
    90   36   92 1   
    91   36   93 1   
    92   37   38 1   
    93   37   94 1   
    94   37   95 1   
    95   38   96 1   
@<TRIPOS>SUBSTRUCTURE
     1 GVT         1 TEMP              0 ****  ****    0 ROOT
