@<TRIPOS>MOLECULE
molecule
   47    49     1     0     0
SMALL
bcc


@<TRIPOS>ATOM
      1 CAA          0.0000     0.0000     0.0000 c3         1 GW0      -0.104800
      2 OAC          1.9020     0.0040     6.0090 o          1 GW0      -0.829800
      3 OAD          0.1890     0.0030     4.6120 o          1 GW0      -0.829800
      4 CAI          4.2800     0.0000     0.0000 ca         1 GW0      -0.158000
      5 CAJ          9.3930     0.6420    -8.1050 ca         1 GW0      -0.139000
      6 CAK          3.5900     0.0000     1.1960 ca         1 GW0      -0.207000
      7 CAL         10.0990     0.2580    -9.2260 ca         1 GW0      -0.070000
      8 CAM          2.1960    -0.0000    -1.2010 ca         1 GW0      -0.096000
      9 CAN          9.0710    -1.6780    -7.5240 ca         1 GW0      -0.176000
     10 CAO          2.3040     0.0020     3.5730 c3         1 GW0      -0.077600
     11 CAP          6.1980    -0.0020    -2.2020 c3         1 GW0       0.082000
     12 NAQ          8.3260     0.8520    -5.0870 nc         1 GW0      -0.715000
     13 OAR          1.5240     0.0020     2.3750 os         1 GW0      -0.270900
     14 SAS          4.4630    -0.0000    -2.7300 ss         1 GW0      -0.286000
     15 SAT          7.7040    -1.4290    -4.2470 ss         1 GW0      -0.157300
     16 CAU          1.3870     0.0030     4.7690 c          1 GW0       0.875600
     17 CAV          1.5070     0.0000    -0.0040 ca         1 GW0      -0.133300
     18 CAW          7.5590     1.0810    -4.0460 cc         1 GW0       0.314600
     19 CAX          3.5840    -0.0000    -1.2040 ca         1 GW0       0.004900
     20 CAY          9.7710    -2.0510    -8.6560 ca         1 GW0       0.169900
     21 CAZ          8.8720    -0.3260    -7.2450 ca         1 GW0       0.012500
     22 CBA          2.2020     0.0010     1.1960 ca         1 GW0       0.146100
     23 CBB          7.0920    -0.0020    -3.4150 cd         1 GW0      -0.091700
     24 CBC         10.2890    -1.0840    -9.5020 ca         1 GW0      -0.237300
     25 CBD          8.5510    -0.3930    -5.3930 cd         1 GW0       0.466900
     26 CBE         11.0740    -1.4740   -10.7280 c3         1 GW0       0.685200
     27 HAA         -0.4620    -0.9770    -0.0730 hc         1 GW0       0.082033
     28 HAAA         0.1710     0.2740     1.0340 hc         1 GW0       0.082033
     29 HAAB        -0.0520     0.9690    -0.4820 hc         1 GW0       0.082033
     30 HAB          6.6600     3.1220    -4.6220 hc         1 GW0       0.060367
     31 HABA         7.2550     3.0280    -3.2930 hc         1 GW0       0.060367
     32 HABB         8.4910     3.3200    -4.7840 hc         1 GW0       0.060367
     33 HAI          5.2590    -0.2950     0.3580 ha         1 GW0       0.135000
     34 HAJ          9.3070     1.6470    -7.7090 ha         1 GW0       0.166000
     35 HAK          4.2150    -0.0740     2.0770 ha         1 GW0       0.146000
     36 HAL         10.5510     1.1880    -9.5480 ha         1 GW0       0.159000
     37 HAM          1.6830     0.6000    -1.9430 ha         1 GW0       0.138000
     38 HAN          8.7310    -2.6900    -7.3400 ha         1 GW0       0.169000
     39 HAO          2.7460    -0.9870     3.5920 h1         1 GW0       0.082700
     40 HAOA         2.7560     0.8650     4.0460 h1         1 GW0       0.082700
     41 HAP          6.1740     0.7810    -1.4540 h1         1 GW0       0.083700
     42 HAPA         6.5530    -0.9710    -1.8730 h1         1 GW0       0.083700
     43 FAF         11.1700    -0.5400   -11.7260 f          1 GW0      -0.225300
     44 FAG          9.8070    -2.4850   -11.4020 f          1 GW0      -0.225300
     45 FAH         12.1270    -2.0860   -10.4170 f          1 GW0      -0.225300
     46 CAB          7.6530     2.8490    -4.2850 c3         1 GW0      -0.058400
     47 FAE         10.1500    -3.1880    -9.2110 f          1 GW0      -0.112900
@<TRIPOS>BOND
     1    17     1 1
     2     1    27 1
     3     1    28 1
     4     1    29 1
     5    46    18 1
     6    46    30 1
     7    46    31 1
     8    46    32 1
     9     2    16 1
    10     3    16 1
    11    20    47 1
    12    26    43 1
    13    26    44 1
    14    26    45 1
    15     4     6 ar
    16     4    19 ar
    17     4    33 1
    18    21     5 ar
    19     5     7 ar
    20     5    34 1
    21     6    22 ar
    22     6    35 1
    23     7    24 ar
    24     7    36 1
    25    19     8 ar
    26     8    17 ar
    27     8    37 1
    28    21     9 ar
    29     9    20 ar
    30     9    38 1
    31    16    10 1
    32    10    13 1
    33    10    39 1
    34    10    40 1
    35    11    14 1
    36    11    23 1
    37    11    41 1
    38    11    42 1
    39    18    12 1
    40    12    25 2
    41    22    13 1
    42    14    19 1
    43    23    15 1
    44    15    25 1
    45    22    17 ar
    46    23    18 2
    47    20    24 ar
    48    25    21 1
    49    24    26 1
@<TRIPOS>SUBSTRUCTURE
     1 GW0         1 TEMP              0 ****  ****    0 ROOT
