@<TRIPOS>MOLECULE
GW0
   47    49     1     0     0
SMALL
bcc


@<TRIPOS>ATOM
      1 CAA         0.8280    0.6140    0.5120 c3        1 GW0     -0.041800
      2 OAC         2.8810   -1.1920    4.6260 o         1 GW0     -0.812800
      3 OAD         2.6140   -3.3470    4.0550 o         1 GW0     -0.812800
      4 CAI         4.5080   -0.4420   -1.4160 ca        1 GW0     -0.038000
      5 CAJ         9.4430    0.1910   -7.1790 ca        1 GW0     -0.122000
      6 CAK         4.2190   -0.9580   -0.1600 ca        1 GW0     -0.241000
      7 CAL        10.1000   -0.7870   -7.9180 ca        1 GW0     -0.068000
      8 CAM         2.4160    0.7650   -1.4190 ca        1 GW0     -0.045000
      9 CAN         8.0040   -1.5000   -6.2090 ca        1 GW0     -0.176000
     10 CAO         3.5670   -1.8830    2.4170 c3        1 GW0     -0.019600
     11 CAP         4.9460    2.4500   -3.4010 c3        1 GW0      0.037000
     12 NAQ         8.1180    2.1130   -5.3930 nc        1 GW0     -0.632000
     13 OAR         2.6370   -1.0500    1.7090 os        1 GW0     -0.271900
     14 SAS         3.9110    1.0040   -3.6270 ss        1 GW0     -0.222000
     15 SAT         6.1880    0.5070   -4.7630 ss        1 GW0      0.030700
     16 CAU         2.9460   -2.1560    3.8230 c         1 GW0      0.927600
     17 CAV         2.0950    0.2640   -0.1660 ca        1 GW0     -0.138300
     18 CAW         7.2190    2.8290   -4.6140 cc        1 GW0      0.353600
     19 CAX         3.6170    0.4230   -2.0570 ca        1 GW0     -0.132100
     20 CAY         8.6680   -2.4870   -6.9580 ca        1 GW0      0.180900
     21 CAZ         8.3880   -0.1580   -6.3200 ca        1 GW0     -0.042500
     22 CBA         3.0150   -0.6100    0.4810 ca        1 GW0      0.203100
     23 CBB         6.1150    2.0860   -4.1950 cd        1 GW0     -0.201700
     24 CBC         9.7240   -2.1280   -7.8210 ca        1 GW0     -0.217300
     25 CBD         7.6760    0.8490   -5.5460 cd        1 GW0      0.343900
     26 CBE        10.4480   -3.1870   -8.6380 c3        1 GW0      0.697200
     27 HAA         0.1650   -0.2860    0.5650 hc        1 GW0      0.048367
     28 HAAA        1.0350    0.9400    1.5640 hc        1 GW0      0.048367
     29 HAAB        0.2890    1.4300   -0.0260 hc        1 GW0      0.048367
     30 HAB         8.3570    4.3560   -3.6310 hc        1 GW0      0.049033
     31 HABA        7.5960    4.8620   -5.1970 hc        1 GW0      0.049033
     32 HABB        6.5650    4.6500   -3.7130 hc        1 GW0      0.049033
     33 HAI         5.4510   -0.7200   -1.9120 ha        1 GW0      0.126000
     34 HAJ         9.7560    1.2430   -7.2690 ha        1 GW0      0.167000
     35 HAK         4.9290   -1.6380    0.3320 ha        1 GW0      0.150000
     36 HAL        10.9270   -0.5050   -8.5890 ha        1 GW0      0.153000
     37 HAM         1.7120    1.4430   -1.9280 ha        1 GW0      0.132000
     38 HAN         7.1850   -1.8000   -5.5360 ha        1 GW0      0.163000
     39 HAO         4.5410   -1.3460    2.5310 h1        1 GW0      0.027200
     40 HAOA        3.7040   -2.8390    1.8530 h1        1 GW0      0.027200
     41 HAP         5.1950    2.6290   -2.3270 h1        1 GW0      0.090700
     42 HAPA        4.4260    3.3550   -3.7960 h1        1 GW0      0.090700
     43 FAF        11.4570   -2.7050   -9.4390 f         1 GW0     -0.236967
     44 FAG         9.6440   -3.8830   -9.5080 f         1 GW0     -0.236967
     45 FAH        11.0610   -4.1630   -7.8910 f         1 GW0     -0.236967
     46 CAB         7.4470    4.2520   -4.2720 c3        1 GW0     -0.121400
     47 FAE         8.2840   -3.7790   -6.8420 f         1 GW0     -0.122900
@<TRIPOS>BOND
     1    1   17 1   
     2    1   27 1   
     3    1   28 1   
     4    1   29 1   
     5    2   16 1   
     6    3   16 1   
     7    4    6 ar  
     8    4   19 ar  
     9    4   33 1   
    10    5    7 ar  
    11    5   21 ar  
    12    5   34 1   
    13    6   22 ar  
    14    6   35 1   
    15    7   24 ar  
    16    7   36 1   
    17    8   17 ar  
    18    8   19 ar  
    19    8   37 1   
    20    9   20 ar  
    21    9   21 ar  
    22    9   38 1   
    23   10   13 1   
    24   10   16 1   
    25   10   39 1   
    26   10   40 1   
    27   11   14 1   
    28   11   23 1   
    29   11   41 1   
    30   11   42 1   
    31   12   18 1   
    32   12   25 2   
    33   13   22 1   
    34   14   19 1   
    35   15   23 1   
    36   15   25 1   
    37   17   22 ar  
    38   18   23 2   
    39   18   46 1   
    40   20   24 ar  
    41   20   47 1   
    42   21   25 1   
    43   24   26 1   
    44   26   43 1   
    45   26   44 1   
    46   26   45 1   
    47   30   46 1   
    48   31   46 1   
    49   32   46 1   
@<TRIPOS>SUBSTRUCTURE
     1 GW0         1 TEMP              0 ****  ****    0 ROOT
