@<TRIPOS>MOLECULE
GW1
   29    30     1     0     0
SMALL
bcc


@<TRIPOS>ATOM
      1 N1           0.0000     0.0000     0.0000 na         1 GW1       0.628400
      2 N3           2.5620    -1.1620    -1.7830 n          1 GW1      -0.142800
      3 C4           0.5620     0.0010     2.0610 cc         1 GW1       0.345200
      4 C5           2.2510    -0.0000    -1.1760 c          1 GW1       0.642700
      5 C6           3.5340    -1.1920    -2.8850 c3         1 GW1       0.046000
      6 C7           4.6200    -2.2230    -2.5570 c3         1 GW1      -0.041400
      7 C8           3.9630    -3.5730    -2.2600 c3         1 GW1      -0.026400
      8 C10          1.9430    -2.4220    -1.3530 c3         1 GW1       0.046000
      9 C1          -0.8440     0.0050    -1.1970 c3         1 GW1      -0.013400
     10 C2           1.3670     0.0000     0.0000 cd         1 GW1      -0.373900
     11 C3           1.7530     0.0000     1.3310 cc         1 GW1      -0.194900
     12 N2          -0.4320     0.0010     1.2100 nd         1 GW1      -0.642800
     13 Cl1          3.3720     0.0010     1.9570 cl         1 GW1       0.029600
     14 O1           2.6990     1.0480    -1.5990 o          1 GW1      -0.626100
     15 C9           3.0410    -3.4380    -1.0460 c3         1 GW1      -0.041400
     16 H1           0.4750     0.0010     3.1410 h4         1 GW1       0.015100
     17 H2           3.9860    -0.2140    -2.9970 h1         1 GW1       0.030200
     18 H3           3.0330    -1.4740    -3.8030 h1         1 GW1       0.030200
     19 H4           5.1770    -1.8950    -1.6880 hc         1 GW1       0.024700
     20 H5           5.2880    -2.3250    -3.4040 hc         1 GW1       0.024700
     21 H6           3.3810    -3.8870    -3.1190 hc         1 GW1       0.017200
     22 H7           4.7300    -4.3080    -2.0500 hc         1 GW1       0.017200
     23 H8           1.3520    -2.2480    -0.4620 h1         1 GW1       0.030200
     24 H9           1.3100    -2.8020    -2.1450 h1         1 GW1       0.030200
     25 H10         -1.8030     0.4500    -0.9600 h1         1 GW1       0.032367
     26 H11         -0.9920    -1.0120    -1.5390 h1         1 GW1       0.032367
     27 H12         -0.3620     0.5820    -1.9770 h1         1 GW1       0.032367
     28 H13          2.5920    -4.3990    -0.8260 hc         1 GW1       0.024700
     29 H14          3.6170    -3.0990    -0.1930 hc         1 GW1       0.024700
@<TRIPOS>BOND
     1     1     9 1   
     2     1    10 1   
     3     1    12 1   
     4     2     4 1   
     5     2     5 1   
     6     2     8 1   
     7     3    11 1   
     8     3    12 2   
     9     3    16 1   
    10     4    10 1   
    11     4    14 2   
    12     5     6 1   
    13     5    17 1   
    14     5    18 1   
    15     6     7 1   
    16     6    19 1   
    17     6    20 1   
    18     7    15 1   
    19     7    21 1   
    20     7    22 1   
    21     8    15 1   
    22     8    23 1   
    23     8    24 1   
    24     9    25 1   
    25     9    26 1   
    26     9    27 1   
    27    10    11 2   
    28    11    13 1   
    29    15    28 1   
    30    15    29 1   
@<TRIPOS>SUBSTRUCTURE
     1 GW1         1 TEMP              0 ****  ****    0 ROOT
