@<TRIPOS>MOLECULE
molecule
   29    30     1     0     0
SMALL
bcc


@<TRIPOS>ATOM
      1 N1           0.0000     0.0000     0.0000 na         1 GW1       0.156400
      2 N3           2.5620    -1.1620    -1.7830 n          1 GW1      -0.480800
      3 C4           0.5620     0.0010     2.0610 cc         1 GW1       0.316200
      4 C5           2.2510    -0.0000    -1.1760 c          1 GW1       0.700700
      5 C6           3.5340    -1.1920    -2.8850 c3         1 GW1       0.104500
      6 C7           4.6200    -2.2230    -2.5570 c3         1 GW1      -0.098900
      7 C8           3.9630    -3.5730    -2.2600 c3         1 GW1      -0.081400
      8 C10          1.9430    -2.4220    -1.3530 c3         1 GW1       0.104500
      9 C1          -0.8440     0.0050    -1.1970 c3         1 GW1       0.052600
     10 C2           1.3670     0.0000     0.0000 cc         1 GW1      -0.179900
     11 C3           1.7530     0.0000     1.3310 cd         1 GW1      -0.127900
     12 N2          -0.4320     0.0010     1.2100 nd         1 GW1      -0.513800
     13 Cl1          3.3720     0.0010     1.9570 cl         1 GW1      -0.062400
     14 O1           2.6990     1.0480    -1.5990 o          1 GW1      -0.581100
     15 C9           3.0410    -3.4380    -1.0460 c3         1 GW1      -0.098900
     16 H1           0.4750     0.0010     3.1410 h4         1 GW1       0.060100
     17 H2           3.9860    -0.2140    -2.9970 h1         1 GW1       0.057450
     18 H3           3.0330    -1.4740    -3.8030 h1         1 GW1       0.057450
     19 H4           5.1770    -1.8950    -1.6880 hc         1 GW1       0.053950
     20 H5           5.2880    -2.3250    -3.4040 hc         1 GW1       0.053950
     21 H6           3.3810    -3.8870    -3.1190 hc         1 GW1       0.043700
     22 H7           4.7300    -4.3080    -2.0500 hc         1 GW1       0.043700
     23 H8           1.3520    -2.2480    -0.4620 h1         1 GW1       0.057450
     24 H9           1.3100    -2.8020    -2.1450 h1         1 GW1       0.057450
     25 H10         -1.8030     0.4500    -0.9600 h1         1 GW1       0.066033
     26 H11         -0.9920    -1.0120    -1.5390 h1         1 GW1       0.066033
     27 H12         -0.3620     0.5820    -1.9770 h1         1 GW1       0.066033
     28 H13          2.5920    -4.3990    -0.8260 hc         1 GW1       0.053950
     29 H14          3.6170    -3.0990    -0.1930 hc         1 GW1       0.053950
@<TRIPOS>BOND
     1     7    15 1
     2     7     6 1
     3    15     8 1
     4     6     5 1
     5     9     1 1
     6     8     2 1
     7     5     2 1
     8     2     4 1
     9     1    10 1
    10     1    12 1
    11    14     4 2
    12     4    10 1
    13    10    11 2
    14    12     3 2
    15     3    11 1
    16    11    13 1
    17     3    16 1
    18     5    17 1
    19     5    18 1
    20     6    19 1
    21     6    20 1
    22     7    21 1
    23     7    22 1
    24     8    23 1
    25     8    24 1
    26     9    25 1
    27     9    26 1
    28     9    27 1
    29    15    28 1
    30    15    29 1
@<TRIPOS>SUBSTRUCTURE
     1 GW1         1 TEMP              0 ****  ****    0 ROOT
