@<TRIPOS>MOLECULE
molecule
   39    41     1     0     0
SMALL
bcc


@<TRIPOS>ATOM
      1 C1           0.0000     0.0000     0.0000 ca         1 GW3       0.479600
      2 C2           1.4130     0.0000     0.0000 ca         1 GW3      -0.281600
      3 C3           2.0880     0.0000     1.2370 ca         1 GW3       0.759200
      4 N4           1.3640     0.0070     2.3500 nb         1 GW3      -0.808000
      5 C5           0.0370     0.0100     2.3100 ca         1 GW3       0.942900
      6 N6          -0.6420     0.0060     1.1780 nb         1 GW3      -0.786000
      7 N7           3.4680    -0.0030     1.2910 nv         1 GW3      -1.075500
      8 C8          -0.6920    -0.0040    -1.2220 ca         1 GW3      -0.188300
      9 C9          -0.0240    -0.0100    -2.4040 ca         1 GW3      -0.079000
     10 C12          1.3720    -0.0130    -2.4590 ca         1 GW3      -0.096200
     11 C13          2.1190    -0.0110    -1.2730 ca         1 GW3      -0.058800
     12 C14          3.4830    -0.0150    -1.6470 cc         1 GW3      -0.189200
     13 C15          3.5400    -0.0250    -2.9910 cd         1 GW3      -0.118100
     14 N16          2.2730    -0.0270    -3.5010 na         1 GW3      -0.032400
     15 N19         -0.6640     0.0160     3.5030 nv         1 GW3      -1.018500
     16 C25          1.9300    -0.0380    -4.9240 c3         1 GW3       0.053000
     17 C27          2.5120     1.2050    -5.5990 c3         1 GW3      -0.098900
     18 C30          2.1530     1.1950    -7.0870 c3         1 GW3      -0.092600
     19 C34          2.5090    -1.2920    -5.5810 c3         1 GW3      -0.098900
     20 C37          1.9270    -2.5360    -4.9060 c3         1 GW3      -0.092600
     21 HN71         3.9720     0.8580     1.2240 hn         1 GW3       0.440300
     22 HN72         3.9590    -0.8590     1.4540 hn         1 GW3       0.440300
     23 H8          -1.7750    -0.0090    -1.2220 ha         1 GW3       0.149000
     24 H9          -0.5890    -0.0160    -3.3290 ha         1 GW3       0.124000
     25 H14          4.3300    -0.0110    -0.9720 ha         1 GW3       0.154000
     26 H15          4.4510    -0.0270    -3.5780 h4         1 GW3       0.164000
     27 HN91        -1.4950     0.5670     3.5920 hn         1 GW3       0.444300
     28 HN92        -0.3430    -0.5340     4.2750 hn         1 GW3       0.444300
     29 H25          0.8530    -0.0370    -5.0350 h1         1 GW3       0.072700
     30 H271         2.1010     2.0940    -5.1350 hc         1 GW3       0.052700
     31 H272         3.5890     1.2060    -5.4880 hc         1 GW3       0.052700
     32 H301         2.8690     0.5870    -7.6270 hc         1 GW3       0.039033
     33 H302         2.1780     2.2080    -7.4710 hc         1 GW3       0.039033
     34 H303         1.1590     0.7840    -7.2160 hc         1 GW3       0.039033
     35 H341         2.2530    -1.2990    -6.6330 hc         1 GW3       0.052700
     36 H342         3.5860    -1.2920    -5.4710 hc         1 GW3       0.052700
     37 H371         2.0480    -3.3910    -5.5600 hc         1 GW3       0.039033
     38 H372         0.8740    -2.3790    -4.7060 hc         1 GW3       0.039033
     39 H373         2.4480    -2.7180    -3.9740 hc         1 GW3       0.039033
@<TRIPOS>BOND
     1     1     2 ar
     2     1     6 ar
     3     1     8 ar
     4     2     3 ar
     5     2    11 ar
     6     3     4 ar
     7     3     7 1
     8     4     5 ar
     9     5     6 ar
    10     5    15 1
    11     7    21 1
    12     7    22 1
    13     8     9 ar
    14     8    23 1
    15     9    10 ar
    16     9    24 1
    17    10    11 ar
    18    10    14 1
    19    11    12 1
    20    12    13 2
    21    12    25 1
    22    13    14 1
    23    13    26 1
    24    14    16 1
    25    15    27 1
    26    15    28 1
    27    16    17 1
    28    16    19 1
    29    16    29 1
    30    17    18 1
    31    17    30 1
    32    17    31 1
    33    18    32 1
    34    18    33 1
    35    18    34 1
    36    19    20 1
    37    19    35 1
    38    19    36 1
    39    20    37 1
    40    20    38 1
    41    20    39 1
@<TRIPOS>SUBSTRUCTURE
     1 GW3         1 TEMP              0 ****  ****    0 ROOT
