@<TRIPOS>MOLECULE
GW4
   80    79     1     0     0
SMALL
bcc


@<TRIPOS>ATOM
      1 O           0.3080    0.9610   -0.5590 os        1 GW4     -0.097000
      2 C           1.0780    0.9560    0.6300 c2        1 GW4      0.138000
      3 N           0.3150    0.8430    1.7230 n2        1 GW4     -0.164000
      4 C1         -1.0140    0.7570    1.2560 c2        1 GW4     -0.107000
      5 C2         -1.0150    0.8320   -0.1410 c2        1 GW4     -0.004000
      6 C3         -2.0440    0.7950   -1.1780 c3        1 GW4     -0.164000
      7 C4          2.4610    1.0540    0.4690 c1        1 GW4     -0.154000
      8 C5          3.9580    1.8880   -2.6740 c2        1 GW4     -0.157000
      9 C6          5.1650    2.1530   -2.1670 c2        1 GW4     -0.178000
     10 C7          5.7050    1.6230   -0.9360 c2        1 GW4     -0.038000
     11 C8          5.0360    1.1710    0.1420 c2        1 GW4     -0.131000
     12 C9          3.6470    1.1170    0.2960 c1        1 GW4     -0.003000
     13 N1          3.1910    5.4610    8.6310 n3        1 GW4     -0.288000
     14 C10         1.8250    5.7970    8.3360 c3        1 GW4     -0.058000
     15 C11         1.1820    6.7780    9.3490 c3        1 GW4     -0.049000
     16 N2          1.6030    8.1440    9.2280 n         1 GW4     -0.368000
     17 C13         2.0370    2.9020    4.9190 c1        1 GW4     -0.261000
     18 C14        -1.1580    1.6660    8.9070 c1        1 GW4      0.040500
     19 C15         1.1000    2.5070    5.8580 c2        1 GW4      0.258000
     20 C16        -1.0720    1.5750    7.7090 c1        1 GW4     -0.261000
     21 C17        -0.0660    1.8480    5.4710 c2        1 GW4     -0.269000
     22 C18        -1.0570    1.4190    6.3310 c2        1 GW4      0.258000
     23 O1         -3.1180   -0.0180    4.2350 oh        1 GW4     -0.292000
     24 C19         3.5790    4.1880    8.9850 c2        1 GW4      0.096000
     25 C20         4.7840    3.9390    9.6230 c2        1 GW4     -0.302000
     26 C21         5.3040    2.5640    9.8060 c3        1 GW4     -0.131000
     27 C22         4.3660    1.4890    9.4430 c2        1 GW4      0.016000
     28 C23         3.1570    1.7610    8.8770 c2        1 GW4     -0.241000
     29 C24         2.7290    3.0680    8.5820 c1        1 GW4     -0.127000
     30 C25         5.3430    5.7680   11.3120 c3        1 GW4     -0.232000
     31 C26         6.0230    7.0700   11.4150 c2        1 GW4      0.071500
     32 C27         6.6090    7.4870   12.5910 c2        1 GW4     -0.211500
     33 C28         6.6280    6.6470   13.7120 c2        1 GW4      0.135000
     34 C29         6.0360    5.3620   13.6580 c2        1 GW4     -0.211500
     35 C30         5.4390    4.9190   12.5100 c2        1 GW4      0.071500
     36 C31         5.7200    4.9980   10.0310 c2        1 GW4      0.309000
     37 O2          6.7580    5.2770    9.4390 o         1 GW4     -0.212000
     38 C32        -2.0780    0.0720    3.3440 c2        1 GW4     -0.031000
     39 C33        -2.1620    0.6160    2.1180 c2        1 GW4     -0.173000
     40 C34         2.7660    8.6390    9.7640 c2        1 GW4      0.338000
     41 C35         3.0230   10.1190    9.6640 c3        1 GW4     -0.246000
     42 O3          3.5940    7.8680   10.3190 o         1 GW4     -0.497000
     43 H31        -3.0320    1.0840   -0.7420 hc        1 GW4      0.114000
     44 H32        -1.7890    1.4940   -2.0150 hc        1 GW4      0.114000
     45 H33        -2.1230   -0.2410   -1.6000 hc        1 GW4      0.114000
     46 H5          3.2310    1.2270   -2.1820 ha        1 GW4      0.126000
     47 H6          3.6280    2.3120   -3.6330 ha        1 GW4      0.126000
     48 H7          5.8630    2.8090   -2.7220 ha        1 GW4      0.138000
     49 H8          6.8120    1.6060   -0.8980 ha        1 GW4      0.139000
     50 H9          5.6040    0.7830    1.0100 ha        1 GW4      0.143000
     51 HN1         1.3320    2.7360    6.9380 ha        1 GW4      0.219500
     52 H10         4.9860    3.9130   12.4510 ha        1 GW4      0.188000
     53 H111        1.8020    6.2560    7.3030 h1        1 GW4      0.116500
     54 H112        1.3950    6.4220   10.3980 h1        1 GW4      0.107000
     55 HN2         0.0680    6.7410    9.1820 h1        1 GW4      0.107000
     56 H121        1.1960    4.8610    8.3180 h1        1 GW4      0.116500
     57 H122        3.5660    3.5280    3.3530 ha        1 GW4      0.260500
     58 H14        -1.2400    1.7430    9.9690 ha        1 GW4      0.260500
     59 H15         1.7340    7.4380    5.1610 ha        1 GW4      0.001000
     60 H16         1.2920    6.9280    5.2110 ha        1 GW4      0.001000
     61 H17        -1.9430    0.8890    5.8880 ha        1 GW4      0.219500
     62 H21         5.6350    2.4110   10.8750 hc        1 GW4      0.155500
     63 H22         6.2380    2.4470    9.1700 hc        1 GW4      0.155500
     64 H23         4.7060    0.4550    9.6350 ha        1 GW4      0.163000
     65 H24         2.4770    0.9340    8.6100 ha        1 GW4      0.155000
     66 H26         4.2230    6.0440   11.1920 hc        1 GW4      0.267000
     67 H27         6.0120    7.7100   10.5110 ha        1 GW4      0.188000
     68 H28         7.0840    8.4850   12.6500 ha        1 GW4      0.195500
     69 H29         7.1170    6.9820   14.6480 ha        1 GW4      0.194000
     70 H30         6.0750    4.7210   14.5580 ha        1 GW4      0.195500
     71 H321       -3.9540    0.1480    3.7750 ho        1 GW4      0.234000
     72 H322       -1.1660   -0.3580    3.7910 h4        1 GW4      0.165000
     73 H331       -0.2160    1.6390    4.3850 ha        1 GW4      0.211000
     74 H332       -3.1190    0.9670    1.6980 ha        1 GW4      0.147000
     75 H351        4.0240   10.3480   10.1050 hc        1 GW4      0.123667
     76 H352        3.0130   10.4530    8.5970 hc        1 GW4      0.123667
     77 H353        2.2430   10.6870   10.2290 hc        1 GW4      0.123667
     78 H12         3.7680    6.2210    8.9270 hn        1 GW4      0.232000
     79 H221        0.9900    8.7730    8.7610 hn        1 GW4      0.248000
     80 C12         2.8500    3.2350    4.0910 c1        1 GW4      0.040500
@<TRIPOS>BOND
     1    1    2 1
     2    1    5 1
     3    2    3 1
     4    2    7 1
     5    3    4 1
     6    4    5 1
     7    4   39 1
     8    5    6 1
     9    6   43 1
    10    6   44 1
    11    6   45 1
    12    7   12 1
    13    8    9 1
    14    8   46 1
    15    8   47 1
    16    9   10 1
    17    9   48 1
    18   10   11 1
    19   10   49 1
    20   11   12 1
    21   11   50 1
    22   13   14 1
    23   13   24 1
    24   13   78 1
    25   14   15 1
    26   14   53 1
    27   14   56 1
    28   15   16 1
    29   15   54 1
    30   15   55 1
    31   16   40 1
    32   16   79 1
    33   17   19 1
    34   17   80 1
    35   18   20 1
    36   18   58 1
    37   19   21 1
    38   19   51 1
    39   20   22 1
    40   21   22 1
    41   21   73 1
    42   22   61 1
    43   23   38 1
    44   23   71 1
    45   24   25 1
    46   24   29 1
    47   25   26 1
    48   25   36 1
    49   26   27 1
    50   26   62 1
    51   26   63 1
    52   27   28 1
    53   27   64 1
    54   28   29 1
    55   28   65 1
    56   30   31 1
    57   30   35 1
    58   30   36 1
    59   30   66 1
    60   31   32 1
    61   31   67 1
    62   32   33 1
    63   32   68 1
    64   33   34 1
    65   33   69 1
    66   34   35 1
    67   34   70 1
    68   35   52 1
    69   36   37 1
    70   38   39 1
    71   38   72 1
    72   39   74 1
    73   40   41 1
    74   40   42 1
    75   41   75 1
    76   41   76 1
    77   41   77 1
    78   57   80 1
    79   59   60 1
@<TRIPOS>SUBSTRUCTURE
     1 GW4         1 TEMP              0 ****  ****    0 ROOT
