@<TRIPOS>MOLECULE
GW5
   48    50     1     0     0
SMALL
bcc


@<TRIPOS>ATOM
      1 C21         0.1370   -0.6160    0.4250 ca        1 GW5     -0.113500
      2 C22         1.5100   -0.3940    0.3340 ca        1 GW5     -0.134000
      3 C23         2.0910    0.6880    0.9950 ca        1 GW5     -0.137000
      4 C24         1.2940    1.5450    1.7530 ca        1 GW5     -0.134000
      5 C25        -0.0790    1.3280    1.8450 ca        1 GW5     -0.113500
      6 C20        -0.6720    0.2450    1.1780 ca        1 GW5     -0.036800
      7 C3         -2.1240    0.0400    1.2650 ce        1 GW5     -0.066400
      8 C2         -2.9410    1.1860    0.7600 c3        1 GW5     -0.042200
      9 C1         -2.8920    1.2870   -0.7470 c3        1 GW5     -0.087100
     10 C4         -2.6740   -1.0920    1.7590 cf        1 GW5      0.022600
     11 C5         -4.1280   -1.2750    1.8970 ca        1 GW5     -0.037800
     12 C6         -4.7850   -2.2690    1.1600 ca        1 GW5     -0.115000
     13 C7         -6.1580   -2.4610    1.3080 ca        1 GW5     -0.135000
     14 C8         -6.8860   -1.6710    2.1980 ca        1 GW5     -0.138000
     15 C9         -6.2350   -0.6900    2.9440 ca        1 GW5     -0.135000
     16 C10        -4.8640   -0.4910    2.7970 ca        1 GW5     -0.115000
     17 C11        -1.8810   -2.2480    2.2040 ca        1 GW5     -0.094800
     18 C19        -1.4460   -2.3490    3.5300 ca        1 GW5     -0.124500
     19 C18        -0.7210   -3.4610    3.9470 ca        1 GW5     -0.134000
     20 C12        -1.5790   -3.2840    1.3100 ca        1 GW5     -0.124500
     21 C13        -0.8530   -4.3960    1.7250 ca        1 GW5     -0.134000
     22 C14        -0.4150   -4.5030    3.0550 ca        1 GW5      0.005200
     23 C15         0.3630   -5.6310    3.5340 ce        1 GW5     -0.189200
     24 C16         0.4590   -6.8610    3.0170 cf        1 GW5     -0.138200
     25 C17        -0.2280   -7.4640    1.8140 c         1 GW5      0.894800
     26 O2          0.1900   -7.1560    0.6590 o         1 GW5     -0.831800
     27 O1         -1.1550   -8.2930    2.0310 o         1 GW5     -0.831800
     28 H21        -0.3160   -1.4880   -0.0750 ha        1 GW5      0.137500
     29 H22         2.1350   -1.0840   -0.2510 ha        1 GW5      0.126500
     30 H23         3.1750    0.8580    0.9270 ha        1 GW5      0.121000
     31 H24         1.7500    2.3920    2.2840 ha        1 GW5      0.126500
     32 H25        -0.7000    2.0020    2.4520 ha        1 GW5      0.137500
     33 H21A       -4.0100    1.0820    1.0870 hc        1 GW5      0.044200
     34 H22A       -2.5490    2.1390    1.2080 hc        1 GW5      0.044200
     35 H11        -3.3360    0.3770   -1.2170 hc        1 GW5      0.033033
     36 H12A       -3.4700    2.1800   -1.0880 hc        1 GW5      0.033033
     37 H13A       -1.8380    1.3870   -1.1010 hc        1 GW5      0.033033
     38 H6         -4.2060   -2.9110    0.4780 ha        1 GW5      0.139000
     39 H7         -6.6640   -3.2470    0.7280 ha        1 GW5      0.125000
     40 H8         -7.9670   -1.8290    2.3170 ha        1 GW5      0.121000
     41 H9         -6.8030   -0.0730    3.6560 ha        1 GW5      0.125000
     42 H10        -4.3510    0.2780    3.3930 ha        1 GW5      0.139000
     43 H19        -1.6790   -1.5460    4.2440 ha        1 GW5      0.116000
     44 H18        -0.3860   -3.5260    4.9920 ha        1 GW5      0.160500
     45 H12        -1.9210   -3.2220    0.2660 ha        1 GW5      0.116000
     46 H13        -0.6170   -5.2090    1.0090 ha        1 GW5      0.160500
     47 H15         0.9280   -5.4040    4.4590 ha        1 GW5      0.084000
     48 H16         1.1070   -7.5960    3.5290 ha        1 GW5      0.097000
@<TRIPOS>BOND
     1    1    2 ar  
     2    1    6 ar  
     3    1   28 1   
     4    2    3 ar  
     5    2   29 1   
     6    3    4 ar  
     7    3   30 1   
     8    4    5 ar  
     9    4   31 1   
    10    5    6 ar  
    11    5   32 1   
    12    6    7 1   
    13    7    8 1   
    14    7   10 2   
    15    8    9 1   
    16    8   33 1   
    17    8   34 1   
    18    9   35 1   
    19    9   36 1   
    20    9   37 1   
    21   10   11 1   
    22   10   17 1   
    23   11   12 ar  
    24   11   16 ar  
    25   12   13 ar  
    26   12   38 1   
    27   13   14 ar  
    28   13   39 1   
    29   14   15 ar  
    30   14   40 1   
    31   15   16 ar  
    32   15   41 1   
    33   16   42 1   
    34   17   18 ar  
    35   17   20 ar  
    36   18   19 ar  
    37   18   43 1   
    38   19   22 ar  
    39   19   44 1   
    40   20   21 ar  
    41   20   45 1   
    42   21   22 ar  
    43   21   46 1   
    44   22   23 1   
    45   23   24 2   
    46   23   47 1   
    47   24   25 1   
    48   24   48 1   
    49   25   26 1   
    50   25   27 1   
@<TRIPOS>SUBSTRUCTURE
     1 GW5         1 TEMP              0 ****  ****    0 ROOT
