@<TRIPOS>MOLECULE
molecule
   48    50     1     0     0
SMALL
bcc


@<TRIPOS>ATOM
      1 C21          0.0000     0.0000     0.0000 ca         1 GW5      -0.111500
      2 C22          1.3790     0.0000     0.0000 ca         1 GW5      -0.128500
      3 C23          2.0740     0.0000     1.1970 ca         1 GW5      -0.128000
      4 C24          1.3930    -0.0020     2.4010 ca         1 GW5      -0.128500
      5 C25          0.0150    -0.0030     2.4190 ca         1 GW5      -0.111500
      6 C20         -0.6960    -0.0010     1.2140 ca         1 GW5      -0.038800
      7 C3          -2.1660    -0.0010     1.2220 ce         1 GW5      -0.072400
      8 C2          -2.9230     1.1830     0.6770 c3         1 GW5      -0.042200
      9 C1          -3.1020     1.0210    -0.8340 c3         1 GW5      -0.087100
     10 C4          -2.8420    -1.0660     1.7220 cf         1 GW5       0.002600
     11 C5          -4.3160    -1.0140     1.8520 ca         1 GW5      -0.032800
     12 C6          -5.1190    -1.8360     1.0610 ca         1 GW5      -0.115000
     13 C7          -6.4910    -1.7830     1.1870 ca         1 GW5      -0.133000
     14 C8          -7.0710    -0.9150     2.0950 ca         1 GW5      -0.137000
     15 C9          -6.2810    -0.0960     2.8820 ca         1 GW5      -0.133000
     16 C10         -4.9070    -0.1450     2.7700 ca         1 GW5      -0.115000
     17 C11         -2.1060    -2.2790     2.1360 ca         1 GW5      -0.097800
     18 C19         -2.0960    -2.6660     3.4790 ca         1 GW5      -0.107000
     19 C18         -1.4170    -3.7860     3.8630 ca         1 GW5      -0.144000
     20 C12         -1.4270    -3.0430     1.1820 ca         1 GW5      -0.107000
     21 C13         -0.7460    -4.1650     1.5630 ca         1 GW5      -0.144000
     22 C14         -0.7310    -4.5490     2.9100 ca         1 GW5      -0.001800
     23 C15          0.0010    -5.7550     3.3230 ce         1 GW5      -0.185200
     24 C16          0.6630    -6.4900     2.4020 cf         1 GW5      -0.135200
     25 C17          1.3900    -7.6900     2.8120 c          1 GW5       0.864800
     26 O2           2.0510    -8.4240     1.8930 o          1 GW5      -0.837800
     27 O1           1.4000    -8.0250     3.9810 o          1 GW5      -0.837800
     28 H21         -0.5430     0.0010    -0.9370 ha         1 GW5       0.131500
     29 H22          1.9190     0.0010    -0.9390 ha         1 GW5       0.125500
     30 H23          3.1580     0.0000     1.1900 ha         1 GW5       0.124000
     31 H24          1.9450    -0.0030     3.3340 ha         1 GW5       0.125500
     32 H25         -0.5170    -0.0050     3.3630 ha         1 GW5       0.131500
     33 H21A        -3.8950     1.2400     1.1520 hc         1 GW5       0.049200
     34 H22A        -2.3680     2.0910     0.8800 hc         1 GW5       0.049200
     35 H11         -4.0710     1.4080    -1.1270 hc         1 GW5       0.033367
     36 H12A        -3.0390    -0.0290    -1.0950 hc         1 GW5       0.033367
     37 H13A        -2.3230     1.5690    -1.3510 hc         1 GW5       0.033367
     38 H6          -4.6650    -2.5160     0.3500 ha         1 GW5       0.136500
     39 H7          -7.1160    -2.4210     0.5740 ha         1 GW5       0.124000
     40 H8          -8.1500    -0.8750     2.1880 ha         1 GW5       0.120000
     41 H9          -6.7420     0.5790     3.5920 ha         1 GW5       0.124000
     42 H10         -4.2890     0.4960     3.3870 ha         1 GW5       0.136500
     43 H19         -2.6270    -2.0750     4.2160 ha         1 GW5       0.118000
     44 H18         -1.4080    -4.0840     4.9050 ha         1 GW5       0.137500
     45 H12         -1.4390    -2.7450     0.1410 ha         1 GW5       0.118000
     46 H13         -0.2180    -4.7550     0.8240 ha         1 GW5       0.137500
     47 H15          0.0090    -6.0540     4.3640 ha         1 GW5       0.152000
     48 H16          0.6540    -6.1910     1.3610 ha         1 GW5       0.105000
@<TRIPOS>BOND
     1     1     2 ar
     2     1     6 ar
     3     1    28 1
     4     2     3 ar
     5     2    29 1
     6     3     4 ar
     7     3    30 1
     8     4     5 ar
     9     4    31 1
    10     5     6 ar
    11     5    32 1
    12     6     7 1
    13     7     8 1
    14     7    10 2
    15     8     9 1
    16     8    33 1
    17     8    34 1
    18     9    35 1
    19     9    36 1
    20     9    37 1
    21    10    11 1
    22    10    17 1
    23    11    12 ar
    24    11    16 ar
    25    12    13 ar
    26    12    38 1
    27    13    14 ar
    28    13    39 1
    29    14    15 ar
    30    14    40 1
    31    15    16 ar
    32    15    41 1
    33    16    42 1
    34    17    18 ar
    35    17    20 ar
    36    18    19 ar
    37    18    43 1
    38    19    22 ar
    39    19    44 1
    40    20    21 ar
    41    20    45 1
    42    21    22 ar
    43    21    46 1
    44    22    23 1
    45    23    24 2
    46    23    47 1
    47    24    25 1
    48    24    48 1
    49    25    26 1
    50    25    27 1
@<TRIPOS>SUBSTRUCTURE
     1 GW5         1 TEMP              0 ****  ****    0 ROOT
