@<TRIPOS>MOLECULE
GW7
   45    48     1     0     0
SMALL
bcc


@<TRIPOS>ATOM
      1 F1           0.0000     0.0000     0.0000 f          1 GW7      -0.127900
      2 C1           1.3510     0.0000     0.0000 ca         1 GW7       0.101900
      3 C2           2.0440     0.0000     1.1990 ca         1 GW7      -0.123000
      4 C3           3.4250    -0.0000     1.1980 ca         1 GW7      -0.078000
      5 C4           4.1160    -0.0010     0.0000 ca         1 GW7      -0.087000
      6 C5           3.4260    -0.0000    -1.1980 ca         1 GW7      -0.087300
      7 C6           4.1800    -0.0020    -2.5020 c3         1 GW7       0.261700
      8 O1           4.4180    -1.3490    -2.9140 os         1 GW7      -0.291900
      9 C7           5.0920    -1.5280    -4.0810 ca         1 GW7       0.142100
     10 C8           5.5160    -0.4280    -4.8120 ca         1 GW7      -0.185000
     11 C9           6.2020    -0.6100    -5.9980 ca         1 GW7      -0.057000
     12 C10          6.4660    -1.8920    -6.4580 ca         1 GW7      -0.039400
     13 N1           7.1610    -2.0760    -7.6590 nu         1 GW7      -0.284300
     14 C11          8.1350    -1.1660    -8.0420 ca         1 GW7       0.579200
     15 N2           8.5000    -0.1840    -7.2280 nb         1 GW7      -0.709000
     16 C12          9.4280     0.6850    -7.5890 ca         1 GW7       0.676900
     17 N3          10.0320     0.6300    -8.7490 nb         1 GW7      -0.652000
     18 C13          9.7310    -0.3360    -9.6490 ca         1 GW7       0.487100
     19 C14         10.2590    -0.5620   -10.9290 cc         1 GW7      -0.230800
     20 C15          9.7590    -1.6000   -11.5820 cd         1 GW7       0.041400
     21 C16         10.1800    -2.0250   -12.9660 c3         1 GW7       0.059800
     22 C17         11.3390    -3.0190   -12.8630 c3         1 GW7       0.004900
     23 S1           8.5380    -2.4130   -10.6170 ss         1 GW7      -0.199500
     24 C18          8.7580    -1.2730    -9.2980 ca         1 GW7      -0.295700
     25 C19          6.0430    -2.9930    -5.7250 ca         1 GW7      -0.093000
     26 C20          5.3620    -2.8110    -4.5370 ca         1 GW7      -0.059600
     27 Cl1          4.8390    -4.1870    -3.6170 cl         1 GW7      -0.004400
     28 C21          2.0440    -0.0060    -1.1990 ca         1 GW7      -0.108000
     29 H2           1.5030     0.0000     2.1370 ha         1 GW7       0.119000
     30 H3           3.9670    -0.0000     2.1360 ha         1 GW7       0.108000
     31 H4           5.1990    -0.0010     0.0000 ha         1 GW7       0.111000
     32 H61          3.5960     0.5100    -3.2570 h1         1 GW7       0.007200
     33 H62          5.1270     0.5080    -2.3710 h1         1 GW7       0.007200
     34 H8           5.3090     0.5730    -4.4540 ha         1 GW7       0.124000
     35 H9           6.5320     0.2500    -6.5690 ha         1 GW7       0.137000
     36 H1           6.9440    -2.8540    -8.2490 hn         1 GW7       0.294800
     37 H12          9.6990     1.4740    -6.8980 h5         1 GW7      -0.002900
     38 H14         11.0260     0.0720   -11.3560 ha         1 GW7       0.137000
     39 H161         9.3440    -2.4950   -13.4690 hc         1 GW7       0.024700
     40 H162        10.4980    -1.1560   -13.5290 hc         1 GW7       0.024700
     41 H171        11.5730    -3.4040   -13.8480 hc         1 GW7       0.008033
     42 H172        11.0560    -3.8380   -12.2130 hc         1 GW7       0.008033
     43 H173        12.2090    -2.5180   -12.4550 hc         1 GW7       0.008033
     44 H19          6.2520    -3.9950    -6.0820 ha         1 GW7       0.118000
     45 H21          1.5030    -0.0060    -2.1380 ha         1 GW7       0.123000
@<TRIPOS>BOND
     1     1     2 1   
     2     2     3 ar  
     3     2    28 ar  
     4     3     4 ar  
     5     3    29 1   
     6     4     5 ar  
     7     4    30 1   
     8     5     6 ar  
     9     5    31 1   
    10     6     7 1   
    11     6    28 ar  
    12     7     8 1   
    13     7    32 1   
    14     7    33 1   
    15     8     9 1   
    16     9    10 ar  
    17     9    26 ar  
    18    10    11 ar  
    19    10    34 1   
    20    11    12 ar  
    21    11    35 1   
    22    12    13 1   
    23    12    25 ar  
    24    13    14 1   
    25    13    36 1   
    26    14    15 ar  
    27    14    24 ar  
    28    15    16 ar  
    29    16    17 ar  
    30    16    37 1   
    31    17    18 ar  
    32    18    19 1   
    33    18    24 ar  
    34    19    20 2   
    35    19    38 1   
    36    20    21 1   
    37    20    23 1   
    38    21    22 1   
    39    21    39 1   
    40    21    40 1   
    41    22    41 1   
    42    22    42 1   
    43    22    43 1   
    44    23    24 1   
    45    25    26 ar  
    46    25    44 1   
    47    26    27 1   
    48    28    45 1   
@<TRIPOS>SUBSTRUCTURE
     1 GW7         1 TEMP              0 ****  ****    0 ROOT
