@<TRIPOS>MOLECULE
GW8
   81    85     1     0     0
SMALL
bcc


@<TRIPOS>ATOM
      1 N1           0.0000     0.0000     0.0000 nb         1 GW8      -0.732000
      2 C2           1.3250     0.0000     0.0000 ca         1 GW8       0.738900
      3 N3           2.0200     0.0000     1.1280 nb         1 GW8      -0.741000
      4 C4           1.4000    -0.0000     2.3040 ca         1 GW8       0.586200
      5 C5           0.0040    -0.0010     2.3350 ca         1 GW8      -0.490600
      6 C6          -0.6820    -0.0010     1.1360 ca         1 GW8       0.525200
      7 CAB          1.4500    -0.2010     4.7650 c3         1 GW8       0.196100
      8 CAC         -2.7970    -1.5890    -7.6790 c3         1 GW8       0.006700
      9 OAD          7.4930     2.0970     1.5810 o          1 GW8      -0.701100
     10 OAF         -2.9740    -1.5180    -5.0500 o          1 GW8      -0.582300
     11 OAG         -1.1920    -2.8820    -6.0360 o          1 GW8      -0.582300
     12 CAH         11.8020     4.2870     0.3650 ca         1 GW8      -0.100000
     13 CAJ         11.2770     3.4290     1.3110 ca         1 GW8      -0.105000
     14 CAK         11.1530     4.4760    -0.8390 ca         1 GW8      -0.048000
     15 CAM          1.0950    -0.8340    -4.6720 ca         1 GW8      -0.064000
     16 CAN         -0.6480     0.5010    -3.7090 ca         1 GW8      -0.064000
     17 CAO          1.8030    -0.7700    -3.4890 ca         1 GW8      -0.120500
     18 CAP          0.0580     0.5730    -2.5240 ca         1 GW8      -0.120500
     19 CAQ          5.7360    -0.6470     3.7990 ca         1 GW8      -0.113500
     20 CAR          5.4060     1.5930     2.9870 ca         1 GW8      -0.113500
     21 CAS          4.3690    -0.8360     3.8350 ca         1 GW8      -0.077000
     22 CAT          4.0390     1.4060     3.0270 ca         1 GW8      -0.077000
     23 CAU          9.4330     2.9290    -0.1480 ca         1 GW8      -0.099000
     24 CAV          8.7590     1.7460    -5.1100 c3         1 GW8       0.138800
     25 CAW          9.2430     0.4890    -3.0940 c3         1 GW8       0.138800
     26 CAX          8.1530     2.9010    -4.3030 c3         1 GW8       0.019500
     27 CAY          8.6580     1.5910    -2.2050 c3         1 GW8       0.019500
     28 NBD          9.5420     1.6190     2.2910 ns         1 GW8      -0.187100
     29 NBE          2.0010     0.0010    -1.2090 nu         1 GW8      -0.287300
     30 CBF          8.2020     1.5140     2.3780 c          1 GW8       0.574100
     31 CBG          9.2680     3.9920    -2.3940 c          1 GW8       0.631700
     32 CBH         -0.1280    -0.1970    -4.7830 ca         1 GW8      -0.107300
     33 CBI          6.2590     0.5690     3.3790 ca         1 GW8      -0.076400
     34 CBJ          1.2870    -0.0650    -2.4090 ca         1 GW8       0.007600
     35 CBK         10.0920     2.7480     1.0570 ca         1 GW8       0.003600
     36 CBL          9.9660     3.7920    -1.1060 ca         1 GW8      -0.151600
     37 CBM          3.5160     0.1910     3.4490 ca         1 GW8       0.000600
     38 NBP          8.5470     0.4850    -4.3870 n3         1 GW8      -0.543600
     39 NBQ          2.1300    -0.0010     3.4830 nh         1 GW8      -0.302700
     40 NBR          8.7100     2.8630    -2.9420 n          1 GW8      -0.165800
     41 H5          -0.5290    -0.0020     3.2780 ha         1 GW8       0.132000
     42 H6          -1.7650    -0.0020     1.1250 h4         1 GW8      -0.020900
     43 HAA         10.0190    -0.5940    -5.4170 h1         1 GW8       0.001033
     44 HAAA         8.7590    -1.5810    -4.6630 h1         1 GW8       0.001033
     45 HAAB         8.4030    -0.6640    -6.1330 h1         1 GW8       0.001033
     46 HAB          2.1800    -0.1960     5.5660 h1         1 GW8       0.011367
     47 HABA         0.7350     0.5970     4.9230 h1         1 GW8       0.011367
     48 HABB         0.9330    -1.1530     4.7550 h1         1 GW8       0.011367
     49 HAC         -3.4960    -2.4090    -7.7960 h1         1 GW8       0.058700
     50 HACA        -2.0480    -1.6380    -8.4610 h1         1 GW8       0.058700
     51 HACB        -3.3300    -0.6480    -7.7480 h1         1 GW8       0.058700
     52 HAH         12.7240     4.8170     0.5690 ha         1 GW8       0.109000
     53 HAJ         11.7910     3.2850     2.2540 ha         1 GW8       0.108000
     54 HAK         11.5680     5.1480    -1.5800 ha         1 GW8       0.121000
     55 HAM          1.4980    -1.3820    -5.5160 ha         1 GW8       0.110000
     56 HAN         -1.6060     0.9990    -3.7990 ha         1 GW8       0.110000
     57 HAO          2.7600    -1.2690    -3.4020 ha         1 GW8       0.126500
     58 HAP         -0.3490     1.1220    -1.6830 ha         1 GW8       0.126500
     59 HAQ          6.4010    -1.4460     4.1030 ha         1 GW8       0.127000
     60 HAR          5.8140     2.5410     2.6580 ha         1 GW8       0.127000
     61 HAS          3.9610    -1.7840     4.1630 ha         1 GW8       0.110500
     62 HAT          3.3740     2.2060     2.7240 ha         1 GW8       0.110500
     63 HAU          8.5100     2.3970    -0.3480 ha         1 GW8       0.181000
     64 HAV          9.8220     1.9140    -5.2370 h1         1 GW8       0.014200
     65 HAVA         8.2770     1.6920    -6.0780 h1         1 GW8       0.014200
     66 HAW         10.2980     0.6760    -3.2530 h1         1 GW8       0.014200
     67 HAWA         9.1100    -0.4720    -2.6110 h1         1 GW8       0.014200
     68 HAX          8.4060     3.8440    -4.7730 h1         1 GW8       0.049700
     69 HAXA         7.0770     2.7870    -4.2580 h1         1 GW8       0.049700
     70 HAY          7.6290     1.3540    -1.9630 h1         1 GW8       0.049700
     71 HAYA         9.2420     1.6730    -1.2970 h1         1 GW8       0.049700
     72 HAZ         -1.4870     0.6370    -6.1950 h1         1 GW8       0.062200
     73 HAZA        -0.2020    -0.3470    -6.9060 h1         1 GW8       0.062200
     74 HNBC         8.2220     0.3570     4.0600 hn         1 GW8       0.160500
     75 HNBD        10.1270     1.0640     2.8840 hn         1 GW8       0.181500
     76 HNBE         2.9990     0.0740    -1.2240 hn         1 GW8       0.294800
     77 CAZ         -0.8960    -0.2630    -6.0790 c3         1 GW8       0.063700
     78 NBC          7.6460     0.7620     3.3490 ns         1 GW8      -0.057100
     79 SBS         -1.9920    -1.7080    -6.0590 s6         1 GW8       0.793000
     80 CAA          8.9590    -0.6640    -5.2040 c3         1 GW8       0.189100
     81 OAE          9.1880     5.1040    -2.8760 o          1 GW8      -0.626100
@<TRIPOS>BOND
     1     1     2 ar  
     2     1     6 ar  
     3     2     3 ar  
     4     2    29 1   
     5     3     4 ar  
     6     4     5 ar  
     7     4    39 1   
     8     5     6 ar  
     9     5    41 1   
    10     6    42 1   
    11     7    39 1   
    12     7    46 1   
    13     7    47 1   
    14     7    48 1   
    15     8    49 1   
    16     8    50 1   
    17     8    51 1   
    18     8    79 1   
    19     9    30 2   
    20    10    79 2   
    21    11    79 2   
    22    12    13 ar  
    23    12    14 ar  
    24    12    52 1   
    25    13    35 ar  
    26    13    53 1   
    27    14    36 ar  
    28    14    54 1   
    29    15    17 ar  
    30    15    32 ar  
    31    15    55 1   
    32    16    18 ar  
    33    16    32 ar  
    34    16    56 1   
    35    17    34 ar  
    36    17    57 1   
    37    18    34 ar  
    38    18    58 1   
    39    19    21 ar  
    40    19    33 ar  
    41    19    59 1   
    42    20    22 ar  
    43    20    33 ar  
    44    20    60 1   
    45    21    37 ar  
    46    21    61 1   
    47    22    37 ar  
    48    22    62 1   
    49    23    35 ar  
    50    23    36 ar  
    51    23    63 1   
    52    24    26 1   
    53    24    38 1   
    54    24    64 1   
    55    24    65 1   
    56    25    27 1   
    57    25    38 1   
    58    25    66 1   
    59    25    67 1   
    60    26    40 1   
    61    26    68 1   
    62    26    69 1   
    63    27    40 1   
    64    27    70 1   
    65    27    71 1   
    66    28    30 1   
    67    28    35 1   
    68    28    75 1   
    69    29    34 1   
    70    29    76 1   
    71    30    78 1   
    72    31    36 1   
    73    31    40 1   
    74    31    81 2   
    75    32    77 1   
    76    33    78 1   
    77    37    39 1   
    78    38    80 1   
    79    43    80 1   
    80    44    80 1   
    81    45    80 1   
    82    72    77 1   
    83    73    77 1   
    84    74    78 1   
    85    77    79 1   
@<TRIPOS>SUBSTRUCTURE
     1 GW8         1 TEMP              0 ****  ****    0 ROOT
