@<TRIPOS>MOLECULE
molecule
   81    85     1     0     0
SMALL
bcc


@<TRIPOS>ATOM
      1 N1           0.0000     0.0000     0.0000 nb         1 GW8      -0.825000
      2 C2           1.3250     0.0000     0.0000 ca         1 GW8       0.968900
      3 N3           2.0200     0.0000     1.1280 nb         1 GW8      -0.842000
      4 C4           1.4000    -0.0000     2.3040 ca         1 GW8       0.765200
      5 C5           0.0040    -0.0010     2.3350 ca         1 GW8      -0.492600
      6 C6          -0.6820    -0.0010     1.1360 ca         1 GW8       0.521200
      7 CAB          1.4500    -0.2010     4.7650 c3         1 GW8       0.235100
      8 CAC         -2.7970    -1.5890    -7.6790 c3         1 GW8      -0.235300
      9 OAD          7.4930     2.0970     1.5810 o          1 GW8      -0.660100
     10 OAF         -2.9740    -1.5180    -5.0500 o          1 GW8      -0.609800
     11 OAG         -1.1920    -2.8820    -6.0360 o          1 GW8      -0.609800
     12 CAH         11.8020     4.2870     0.3650 ca         1 GW8      -0.127000
     13 CAJ         11.2770     3.4290     1.3110 ca         1 GW8      -0.126000
     14 CAK         11.1530     4.4760    -0.8390 ca         1 GW8      -0.083000
     15 CAM          1.0950    -0.8340    -4.6720 ca         1 GW8      -0.089500
     16 CAN         -0.6480     0.5010    -3.7090 ca         1 GW8      -0.089500
     17 CAO          1.8030    -0.7700    -3.4890 ca         1 GW8      -0.143500
     18 CAP          0.0580     0.5730    -2.5240 ca         1 GW8      -0.143500
     19 CAQ          5.7360    -0.6470     3.7990 ca         1 GW8      -0.139500
     20 CAR          5.4060     1.5930     2.9870 ca         1 GW8      -0.139500
     21 CAS          4.3690    -0.8360     3.8350 ca         1 GW8      -0.111500
     22 CAT          4.0390     1.4060     3.0270 ca         1 GW8      -0.111500
     23 CAU          9.4330     2.9290    -0.1480 ca         1 GW8      -0.101000
     24 CAV          8.7590     1.7460    -5.1100 c3         1 GW8       0.143300
     25 CAW          9.2430     0.4890    -3.0940 c3         1 GW8       0.143300
     26 CAX          8.1530     2.9010    -4.3030 c3         1 GW8       0.092500
     27 CAY          8.6580     1.5910    -2.2050 c3         1 GW8       0.092500
     28 NBD          9.5420     1.6190     2.2910 ns         1 GW8      -0.570100
     29 NBE          2.0010     0.0010    -1.2090 nu         1 GW8      -0.754300
     30 CBF          8.2020     1.5140     2.3780 c          1 GW8       0.778100
     31 CBG          9.2680     3.9920    -2.3940 c          1 GW8       0.691700
     32 CBH         -0.1280    -0.1970    -4.7830 ca         1 GW8      -0.114300
     33 CBI          6.2590     0.5690     3.3790 ca         1 GW8       0.065600
     34 CBJ          1.2870    -0.0650    -2.4090 ca         1 GW8       0.174600
     35 CBK         10.0920     2.7480     1.0570 ca         1 GW8       0.109600
     36 CBL          9.9660     3.7920    -1.1060 ca         1 GW8      -0.141600
     37 CBM          3.5160     0.1910     3.4490 ca         1 GW8       0.137600
     38 NBP          8.5470     0.4850    -4.3870 n3         1 GW8      -0.730600
     39 NBQ          2.1300    -0.0010     3.4830 nh         1 GW8      -0.698700
     40 NBR          8.7100     2.8630    -2.9420 n          1 GW8      -0.496800
     41 H5          -0.5290    -0.0020     3.2780 ha         1 GW8       0.142000
     42 H6          -1.7650    -0.0020     1.1250 h4         1 GW8       0.029100
     43 HAA         10.0190    -0.5940    -5.4170 h1         1 GW8       0.033367
     44 HAAA         8.7590    -1.5810    -4.6630 h1         1 GW8       0.033367
     45 HAAB         8.4030    -0.6640    -6.1330 h1         1 GW8       0.033367
     46 HAB          2.1800    -0.1960     5.5660 h1         1 GW8       0.042367
     47 HABA         0.7350     0.5970     4.9230 h1         1 GW8       0.042367
     48 HABB         0.9330    -1.1530     4.7550 h1         1 GW8       0.042367
     49 HAC         -3.4960    -2.4090    -7.7960 h1         1 GW8       0.095033
     50 HACA        -2.0480    -1.6380    -8.4610 h1         1 GW8       0.095033
     51 HACB        -3.3300    -0.6480    -7.7480 h1         1 GW8       0.095033
     52 HAH         12.7240     4.8170     0.5690 ha         1 GW8       0.143000
     53 HAJ         11.7910     3.2850     2.2540 ha         1 GW8       0.140000
     54 HAK         11.5680     5.1480    -1.5800 ha         1 GW8       0.154000
     55 HAM          1.4980    -1.3820    -5.5160 ha         1 GW8       0.138000
     56 HAN         -1.6060     0.9990    -3.7990 ha         1 GW8       0.138000
     57 HAO          2.7600    -1.2690    -3.4020 ha         1 GW8       0.153500
     58 HAP         -0.3490     1.1220    -1.6830 ha         1 GW8       0.153500
     59 HAQ          6.4010    -1.4460     4.1030 ha         1 GW8       0.151000
     60 HAR          5.8140     2.5410     2.6580 ha         1 GW8       0.151000
     61 HAS          3.9610    -1.7840     4.1630 ha         1 GW8       0.140000
     62 HAT          3.3740     2.2060     2.7240 ha         1 GW8       0.140000
     63 HAU          8.5100     2.3970    -0.3480 ha         1 GW8       0.196000
     64 HAV          9.8220     1.9140    -5.2370 h1         1 GW8       0.041200
     65 HAVA         8.2770     1.6920    -6.0780 h1         1 GW8       0.041200
     66 HAW         10.2980     0.6760    -3.2530 h1         1 GW8       0.041200
     67 HAWA         9.1100    -0.4720    -2.6110 h1         1 GW8       0.041200
     68 HAX          8.4060     3.8440    -4.7730 h1         1 GW8       0.072700
     69 HAXA         7.0770     2.7870    -4.2580 h1         1 GW8       0.072700
     70 HAY          7.6290     1.3540    -1.9630 h1         1 GW8       0.072700
     71 HAYA         9.2420     1.6730    -1.2970 h1         1 GW8       0.072700
     72 HAZ         -1.4870     0.6370    -6.1950 h1         1 GW8       0.096200
     73 HAZA        -0.2020    -0.3470    -6.9060 h1         1 GW8       0.096200
     74 HNBC         8.2220     0.3570     4.0600 hn         1 GW8       0.315500
     75 HNBD        10.1270     1.0640     2.8840 hn         1 GW8       0.319500
     76 HNBE         2.9990     0.0740    -1.2240 hn         1 GW8       0.469800
     77 CAZ         -0.8960    -0.2630    -6.0790 c3         1 GW8      -0.141300
     78 NBC          7.6460     0.7620     3.3490 ns         1 GW8      -0.496100
     79 SBS         -1.9920    -1.7080    -6.0590 s6         1 GW8       1.101000
     80 CAA          8.9590    -0.6640    -5.2040 c3         1 GW8       0.152100
     81 OAE          9.1880     5.1040    -2.8760 o          1 GW8      -0.585100
@<TRIPOS>BOND
     1     6     1 ar
     2     1     2 ar
     3     2    29 1
     4     2     3 ar
     5     4     3 ar
     6     5     4 ar
     7     4    39 1
     8     6     5 ar
     9     5    41 1
    10     6    42 1
    11    38    80 1
    12    80    43 1
    13    80    44 1
    14    80    45 1
    15    39     7 1
    16     7    46 1
    17     7    47 1
    18     7    48 1
    19     8    79 1
    20     8    49 1
    21     8    50 1
    22     8    51 1
    23    30     9 2
    24    31    81 2
    25    79    10 2
    26    79    11 2
    27    13    12 ar
    28    12    14 ar
    29    12    52 1
    30    13    35 ar
    31    13    53 1
    32    14    36 ar
    33    14    54 1
    34    17    15 ar
    35    15    32 ar
    36    15    55 1
    37    18    16 ar
    38    32    16 ar
    39    16    56 1
    40    17    34 ar
    41    17    57 1
    42    34    18 ar
    43    18    58 1
    44    21    19 ar
    45    19    33 ar
    46    19    59 1
    47    22    20 ar
    48    33    20 ar
    49    20    60 1
    50    21    37 ar
    51    21    61 1
    52    37    22 ar
    53    22    62 1
    54    35    23 ar
    55    23    36 ar
    56    23    63 1
    57    26    24 1
    58    24    38 1
    59    24    64 1
    60    24    65 1
    61    27    25 1
    62    25    38 1
    63    25    66 1
    64    25    67 1
    65    40    26 1
    66    26    68 1
    67    26    69 1
    68    40    27 1
    69    27    70 1
    70    27    71 1
    71    32    77 1
    72    77    79 1
    73    77    72 1
    74    77    73 1
    75    33    78 1
    76    78    30 1
    77    78    74 1
    78    30    28 1
    79    28    35 1
    80    28    75 1
    81    29    34 1
    82    29    76 1
    83    36    31 1
    84    31    40 1
    85    39    37 1
@<TRIPOS>SUBSTRUCTURE
     1 GW8         1 TEMP              0 ****  ****    0 ROOT
