@<TRIPOS>MOLECULE
GW9
   28    29     1     0     0
SMALL
bcc


@<TRIPOS>ATOM
      1 Cl           0.0000     0.0000     0.0000 cl         1 GW9       0.077600
      2 C9           1.7350     0.0000     0.0000 ca         1 GW9       0.049400
      3 C10          2.4280     0.0000     1.1940 ca         1 GW9      -0.132000
      4 C11          3.8100    -0.0010     1.1960 ca         1 GW9       0.021000
      5 C12          4.5100    -0.0020     0.0020 ca         1 GW9      -0.463200
      6 N2           5.9900    -0.0020     0.0130 no         1 GW9       1.048200
      7 O3           6.5910    -0.0030     1.0730 o          1 GW9      -0.447000
      8 O2           6.6080    -0.0030    -1.0370 o          1 GW9      -0.447000
      9 C13          3.8320    -0.0030    -1.1990 ca         1 GW9       0.014000
     10 C8           2.4360    -0.0060    -1.2090 ca         1 GW9      -0.179600
     11 C1           1.7030    -0.0120    -2.4920 c          1 GW9       0.581700
     12 O1           0.4870    -0.0110    -2.4970 o          1 GW9      -0.629100
     13 N1           2.3820    -0.0190    -3.6560 ns         1 GW9      -0.020100
     14 C2           1.6910    -0.1210    -4.8680 ca         1 GW9      -0.099400
     15 C7           0.4480     0.4800    -5.0130 ca         1 GW9      -0.116000
     16 C6          -0.2320     0.3760    -6.2110 ca         1 GW9      -0.081500
     17 C5           0.3250    -0.3260    -7.2650 ca         1 GW9      -0.110000
     18 C4           1.5630    -0.9240    -7.1240 ca         1 GW9      -0.081500
     19 C3           2.2510    -0.8200    -5.9300 ca         1 GW9      -0.116000
     20 H10          1.8870     0.0010     2.1330 ha         1 GW9       0.129000
     21 H11          4.3480    -0.0010     2.1360 ha         1 GW9       0.135000
     22 H13          4.3820    -0.0060    -2.1320 ha         1 GW9       0.132000
     23 HN1          3.3820    -0.0600    -3.6480 hn         1 GW9       0.171500
     24 H7           0.0110     1.0290    -4.1880 ha         1 GW9       0.125000
     25 H6          -1.2020     0.8440    -6.3250 ha         1 GW9       0.104000
     26 H5          -0.2110    -0.4070    -8.2030 ha         1 GW9       0.104000
     27 H4           1.9980    -1.4710    -7.9520 ha         1 GW9       0.104000
     28 H3           3.2210    -1.2890    -5.8190 ha         1 GW9       0.125000
@<TRIPOS>BOND
     1     1     2 1   
     2     2     3 ar  
     3     2    10 ar  
     4     3     4 ar  
     5     3    20 1   
     6     4     5 ar  
     7     4    21 1   
     8     5     6 1   
     9     5     9 ar  
    10     6     7 1   
    11     6     8 1   
    12     9    10 ar  
    13     9    22 1   
    14    10    11 1   
    15    11    12 2   
    16    11    13 1   
    17    13    14 1   
    18    13    23 1   
    19    14    15 ar  
    20    14    19 ar  
    21    15    16 ar  
    22    15    24 1   
    23    16    17 ar  
    24    16    25 1   
    25    17    18 ar  
    26    17    26 1   
    27    18    19 ar  
    28    18    27 1   
    29    19    28 1   
@<TRIPOS>SUBSTRUCTURE
     1 GW9         1 TEMP              0 ****  ****    0 ROOT
