@<TRIPOS>MOLECULE
GWB
   37    39     1     0     0
SMALL
bcc


@<TRIPOS>ATOM
      1 CA         -1.2930   -2.7900   -0.2790 c1        1 GWB     -0.044400
      2 CB         -0.9500   -1.6700   -0.0430 c1        1 GWB     -0.102100
      3 CC         -0.5540   -0.3480    0.2560 cx        1 GWB     -0.042600
      4 CD          0.3850    0.3930   -0.6720 cx        1 GWB     -0.115900
      5 CE          0.8730   -0.0580    0.6690 cx        1 GWB     -0.115900
      6 N1         -3.8300   -5.0450   -3.8730 n         1 GWB     -0.445100
      7 C6         -4.5110   -4.9810   -2.6500 c         1 GWB      0.702700
      8 O2         -5.7240   -5.2630   -2.6600 o         1 GWB     -0.622500
      9 C5         -3.7390   -4.5800   -1.4520 cc        1 GWB     -0.140400
     10 C4         -2.4090   -4.3190   -1.5900 cd        1 GWB      0.153900
     11 O4         -1.6320   -4.0710   -0.4340 os        1 GWB     -0.126700
     12 C2         -2.4760   -4.7700   -4.0000 ca        1 GWB      0.085600
     13 C3         -1.7160   -4.3980   -2.8580 ca        1 GWB     -0.112800
     14 C7         -0.3450   -4.1340   -2.9830 ca        1 GWB     -0.100000
     15 C8          0.2730   -4.2270   -4.2310 ca        1 GWB      0.088900
     16 C9         -0.4780   -4.5900   -5.3740 ca        1 GWB     -0.109000
     17 C10        -1.8270   -4.8570   -5.2610 ca        1 GWB     -0.161000
     18 F           1.5980   -3.9700   -4.3580 f         1 GWB     -0.135900
     19 C12        -5.5660   -3.4620   -0.1920 c3        1 GWB     -0.095100
     20 C13        -4.9950   -5.8460    0.2760 c3        1 GWB     -0.095100
     21 HC         -1.3630    0.2380    0.7470 hc        1 GWB      0.095700
     22 HD1         0.7560   -0.1180   -1.5780 hc        1 GWB      0.077450
     23 HD2         0.2000    1.4670   -0.8490 hc        1 GWB      0.077450
     24 HE1         1.0410    0.6890    1.4640 hc        1 GWB      0.077450
     25 HE2         1.5940   -0.8930    0.7250 hc        1 GWB      0.077450
     26 HN1        -4.3460   -5.3100   -4.6850 hn        1 GWB      0.337500
     27 H7          0.2390   -3.8550   -2.0910 ha        1 GWB      0.168000
     28 H9          0.0270   -4.6570   -6.3500 ha        1 GWB      0.155000
     29 H10        -2.4020   -5.1420   -6.1560 ha        1 GWB      0.146000
     30 H11        -3.7040   -4.1600    0.6380 hc        1 GWB      0.066700
     31 H121       -6.0460   -3.3820    0.8130 hc        1 GWB      0.044867
     32 H122       -6.3430   -3.7630   -0.9370 hc        1 GWB      0.044867
     33 H123       -5.1620   -2.4620   -0.4760 hc        1 GWB      0.044867
     34 H131       -4.1690   -6.5930    0.3480 hc        1 GWB      0.044867
     35 H132       -5.7490   -6.2090   -0.4640 hc        1 GWB      0.044867
     36 H133       -5.4860   -5.7600    1.2750 hc        1 GWB      0.044867
     37 C11        -4.4520   -4.4920   -0.1410 c3        1 GWB     -0.014500
@<TRIPOS>BOND
     1    1    2 3
     2    1   11 1
     3    2    3 1
     4    3    4 1
     5    3    5 1
     6    3   21 1
     7    4    5 1
     8    4   22 1
     9    4   23 1
    10    5   24 1
    11    5   25 1
    12    6    7 1
    13    6   12 1
    14    6   26 1
    15    7    8 2
    16    7    9 1
    17    9   10 2
    18    9   37 1
    19   10   11 1
    20   10   13 1
    21   12   13 ar
    22   12   17 ar
    23   13   14 ar
    24   14   15 ar
    25   14   27 1
    26   15   16 ar
    27   15   18 1
    28   16   17 ar
    29   16   28 1
    30   17   29 1
    31   19   31 1
    32   19   32 1
    33   19   33 1
    34   19   37 1
    35   20   34 1
    36   20   35 1
    37   20   36 1
    38   20   37 1
    39   30   37 1
@<TRIPOS>SUBSTRUCTURE
     1 GWB         1 TEMP              0 ****  ****    0 ROOT
