@<TRIPOS>MOLECULE
GWD
   29    31     1     0     0
SMALL
bcc


@<TRIPOS>ATOM
      1 CAH          0.0000     0.0000     0.0000 ca         1 GWD      -0.040500
      2 CAO          1.3780     0.0000     0.0000 ca         1 GWD      -0.022400
      3 BrAC         2.3210     0.0010    -1.6380 br         1 GWD      -0.085600
      4 CAM          2.0750     0.0000     1.2040 ca         1 GWD       0.179100
      5 OAB          3.4320     0.0010     1.1980 oh         1 GWD      -0.480100
      6 CAP          1.3870     0.0010     2.4130 ca         1 GWD      -0.022400
      7 BrAD         2.3450     0.0010     4.0430 br         1 GWD      -0.085600
      8 CAI          0.0100     0.0000     2.4250 ca         1 GWD      -0.040500
      9 CAQ         -0.6980     0.0060     1.2150 ca         1 GWD      -0.101800
     10 CAF         -2.1640     0.0060     1.2220 ce         1 GWD       0.055800
     11 CAS         -2.8430     0.8300     2.0710 cd         1 GWD      -0.158400
     12 CAU         -2.2890     1.9270     2.8960 ca         1 GWD      -0.109800
     13 CAK         -1.0060     2.4380     3.0670 ca         1 GWD      -0.053000
     14 CAN         -0.7990     3.4950     3.9300 ca         1 GWD       0.171900
     15 IAE          1.1300     4.2700     4.1910 i          1 GWD      -0.274900
     16 CAG         -1.8650     4.0440     4.6240 ca         1 GWD      -0.049000
     17 CAJ         -3.1420     3.5440     4.4620 ca         1 GWD      -0.115000
     18 CAT         -3.3690     2.4790     3.5970 ca         1 GWD      -0.096400
     19 NAL         -4.5320     1.7980     3.2550 ns         1 GWD       0.003900
     20 CAR         -4.2870     0.8260     2.3610 c          1 GWD       0.619700
     21 OAA         -5.1110     0.0700     1.8810 o          1 GWD      -0.647500
     22 HAH         -0.5430     0.0040    -0.9380 ha         1 GWD       0.131500
     23 HOAB         3.7470    -0.8880     1.1980 ho         1 GWD       0.414000
     24 HAI         -0.5240     0.0030     3.3670 ha         1 GWD       0.131500
     25 HAF         -2.7080    -0.6570     0.5600 ha         1 GWD       0.126000
     26 HAK         -0.1930     2.0770     2.4490 ha         1 GWD       0.142000
     27 HAG         -1.6950     4.8730     5.3000 ha         1 GWD       0.118000
     28 HAJ         -3.9670     3.9810     5.0100 ha         1 GWD       0.111000
     29 HNAL        -5.4380     2.0100     3.6240 hn         1 GWD       0.179500
@<TRIPOS>BOND
     1     1     2 ar  
     2     1     9 ar  
     3     1    22 1   
     4     2     3 1   
     5     2     4 ar  
     6     4     5 1   
     7     4     6 ar  
     8     5    23 1   
     9     6     7 1   
    10     6     8 ar  
    11     8     9 ar  
    12     8    24 1   
    13     9    10 1   
    14    10    11 2   
    15    10    25 1   
    16    11    12 1   
    17    11    20 1   
    18    12    13 ar  
    19    12    18 ar  
    20    13    14 ar  
    21    13    26 1   
    22    14    15 1   
    23    14    16 ar  
    24    16    17 ar  
    25    16    27 1   
    26    17    18 ar  
    27    17    28 1   
    28    18    19 1   
    29    19    20 1   
    30    19    29 1   
    31    20    21 2   
@<TRIPOS>SUBSTRUCTURE
     1 GWD         1 TEMP              0 ****  ****    0 ROOT
