@<TRIPOS>MOLECULE
GWE
   56    58     1     0     0
SMALL
bcc


@<TRIPOS>ATOM
      1 C1           0.0000     0.0000     0.0000 ca         1 GWE       0.161100
      2 C2           1.4030     0.0000     0.0000 ca         1 GWE      -0.187600
      3 C3           2.0940     0.0000     1.2150 ca         1 GWE      -0.013000
      4 C4           1.3950     0.0010     2.4030 ca         1 GWE      -0.078600
      5 C5           0.0080     0.0010     2.3990 ca         1 GWE      -0.031000
      6 C6          -0.6870     0.0010     1.2050 ca         1 GWE      -0.208000
      7 Cl1          2.2540     0.0020     3.9120 cl         1 GWE       0.006600
      8 C7           2.1440    -0.0020    -1.2740 c          1 GWE       0.659300
      9 O1           2.6750     1.0180    -1.6700 o          1 GWE      -0.526100
     10 C8           2.2400    -1.2430    -2.0720 ca         1 GWE      -0.153600
     11 C9           3.0300    -1.2770    -3.2230 ca         1 GWE      -0.037000
     12 C10          3.1170    -2.4400    -3.9620 ca         1 GWE       0.090900
     13 C11          2.4210    -3.5720    -3.5640 ca         1 GWE      -0.055000
     14 C12          1.6380    -3.5420    -2.4240 ca         1 GWE      -0.202300
     15 C13          1.5470    -2.3880    -1.6740 ca         1 GWE      -0.013000
     16 C14          0.8830    -4.7760    -1.9980 c3         1 GWE       0.642200
     17 F1           1.1340    -5.8110    -2.9060 f          1 GWE      -0.205967
     18 F2           1.3060    -5.1630    -0.7210 f          1 GWE      -0.205967
     19 F3          -0.4870    -4.4990    -1.9720 f          1 GWE      -0.205967
     20 F4           3.8800    -2.4770    -5.0770 f          1 GWE      -0.117900
     21 O2          -0.6820     0.0050    -1.1730 os         1 GWE      -0.269900
     22 C15         -2.1090     0.0060    -1.0940 c3         1 GWE       0.139400
     23 C16         -2.6890     0.0110    -2.4840 c          1 GWE       0.557100
     24 O3          -1.9520     0.0160    -3.4480 o          1 GWE      -0.586100
     25 N1          -4.0250     0.0130    -2.6560 ns         1 GWE      -0.048500
     26 C17         -4.5640    -0.0830    -3.9440 cc         1 GWE       0.170200
     27 C18         -5.7600    -0.7590    -4.1500 cc         1 GWE      -0.204800
     28 C19         -6.2900    -0.8530    -5.4210 cd         1 GWE      -0.004000
     29 C20         -5.6310    -0.2730    -6.4910 cd         1 GWE      -0.397000
     30 C21         -4.4400     0.4000    -6.2900 cd         1 GWE      -0.012000
     31 C22         -3.9080     0.5010    -5.0190 cc         1 GWE      -0.188600
     32 C23         -6.4790    -1.3910    -2.9850 c3         1 GWE       0.059100
     33 S1          -6.3280    -0.3980    -8.1560 s6         1 GWE       0.488500
     34 N2          -7.0200    -0.4940    -9.7600 nz         1 GWE      -0.410500
     35 O4          -5.1240    -0.2090    -9.2730 oh         1 GWE      -0.469200
     36 O5          -7.0300    -1.8770    -8.3490 oh         1 GWE      -0.469200
     37 H3           3.1770    -0.0220     1.2220 ha         1 GWE       0.127000
     38 H5          -0.5360     0.0100     3.3350 ha         1 GWE       0.118000
     39 H6          -1.7700     0.0240     1.2110 ha         1 GWE       0.117000
     40 H9           3.5740    -0.3940    -3.5330 ha         1 GWE       0.142000
     41 H11          2.4900    -4.4830    -4.1450 ha         1 GWE       0.137000
     42 H13          0.9380    -2.3680    -0.7790 ha         1 GWE       0.124000
     43 H15         -2.4430     0.9080    -0.5950 h1         1 GWE       0.023700
     44 H15A        -2.4400    -0.8600    -0.5330 h1         1 GWE       0.023700
     45 HN1         -4.6320     0.0590    -1.8620 hn         1 GWE       0.186500
     46 H19         -7.2190    -1.3850    -5.5830 ha         1 GWE       0.118000
     47 H21         -3.9160     0.8360    -7.1320 ha         1 GWE       0.120000
     48 H22         -2.9920     1.0570    -4.8570 ha         1 GWE       0.168000
     49 H23         -5.7920    -1.5040    -2.1550 hc         1 GWE       0.019367
     50 H23A        -7.3060    -0.7590    -2.6850 hc         1 GWE       0.019367
     51 H23B        -6.8550    -2.3630    -3.2780 hc         1 GWE       0.019367
     52 HNS         -8.0040    -0.6620    -9.6890 hn         1 GWE       0.302800
     53 HNSA        -6.5900    -1.2430   -10.2650 hn         1 GWE       0.302800
     54 H18         -5.4130    -0.5430   -10.1060 ho         1 GWE       0.477500
     55 H191        -7.0690    -2.0890    -9.2670 ho         1 GWE       0.477500
     56 H231        -6.7000     0.2800   -10.3090 hn         1 GWE       0.302800
@<TRIPOS>BOND
     1     1     2 ar  
     2     1     6 ar  
     3     1    21 1   
     4     2     3 ar  
     5     2     8 1   
     6     3     4 ar  
     7     3    37 1   
     8     4     5 ar  
     9     4     7 1   
    10     5     6 ar  
    11     5    38 1   
    12     6    39 1   
    13     8     9 2   
    14     8    10 1   
    15    10    11 ar  
    16    10    15 ar  
    17    11    12 ar  
    18    11    40 1   
    19    12    13 ar  
    20    12    20 1   
    21    13    14 ar  
    22    13    41 1   
    23    14    15 ar  
    24    14    16 1   
    25    15    42 1   
    26    16    17 1   
    27    16    18 1   
    28    16    19 1   
    29    21    22 1   
    30    22    23 1   
    31    22    43 1   
    32    22    44 1   
    33    23    24 2   
    34    23    25 1   
    35    25    26 2   
    36    25    45 1   
    37    26    27 1   
    38    26    31 1   
    39    27    28 2   
    40    27    32 1   
    41    28    29 1   
    42    28    46 1   
    43    29    30 1   
    44    29    33 2   
    45    30    31 2   
    46    30    47 1   
    47    31    48 1   
    48    32    49 1   
    49    32    50 1   
    50    32    51 1   
    51    33    34 1   
    52    33    35 1   
    53    33    36 1   
    54    34    52 1   
    55    34    53 1   
    56    34    56 1   
    57    35    54 1   
    58    36    55 1   
@<TRIPOS>SUBSTRUCTURE
     1 GWE         1 TEMP              0 ****  ****    0 ROOT
