@<TRIPOS>MOLECULE
molecule
   56    58     1     0     0
SMALL
bcc


@<TRIPOS>ATOM
      1 C1           0.0000     0.0000     0.0000 ca         1 GWE       0.153100
      2 C2           1.4030     0.0000     0.0000 ca         1 GWE      -0.172600
      3 C3           2.0940     0.0000     1.2150 ca         1 GWE      -0.046000
      4 C4           1.3950     0.0010     2.4030 ca         1 GWE      -0.004600
      5 C5           0.0080     0.0010     2.3990 ca         1 GWE      -0.063000
      6 C6          -0.6870     0.0010     1.2050 ca         1 GWE      -0.219000
      7 Cl1          2.2540     0.0020     3.9120 cl         1 GWE      -0.081400
      8 C7           2.1440    -0.0020    -1.2740 c          1 GWE       0.604300
      9 O1           2.6750     1.0180    -1.6700 o          1 GWE      -0.491100
     10 C8           2.2400    -1.2430    -2.0720 ca         1 GWE      -0.142600
     11 C9           3.0300    -1.2770    -3.2230 ca         1 GWE      -0.083000
     12 C10          3.1170    -2.4400    -3.9620 ca         1 GWE       0.120900
     13 C11          2.4210    -3.5720    -3.5640 ca         1 GWE      -0.100000
     14 C12          1.6380    -3.5420    -2.4240 ca         1 GWE      -0.171300
     15 C13          1.5470    -2.3880    -1.6740 ca         1 GWE      -0.051000
     16 C14          0.8830    -4.7760    -1.9980 c3         1 GWE       0.677200
     17 F1           1.1340    -5.8110    -2.9060 f          1 GWE      -0.220967
     18 F2           1.3060    -5.1630    -0.7210 f          1 GWE      -0.220967
     19 F3          -0.4870    -4.4990    -1.9720 f          1 GWE      -0.220967
     20 F4           3.8800    -2.4770    -5.0770 f          1 GWE      -0.126900
     21 O2          -0.6820     0.0050    -1.1730 os         1 GWE      -0.293900
     22 C15         -2.1090     0.0060    -1.0940 c3         1 GWE       0.071400
     23 C16         -2.6890     0.0110    -2.4840 c          1 GWE       0.659100
     24 O3          -1.9520     0.0160    -3.4480 o          1 GWE      -0.543100
     25 N1          -4.0250     0.0130    -2.6560 ns         1 GWE      -0.487500
     26 C17         -4.5640    -0.0830    -3.9440 cc         1 GWE       0.146000
     27 C18         -5.7600    -0.7590    -4.1500 cc         1 GWE      -0.117200
     28 C19         -6.2900    -0.8530    -5.4210 cd         1 GWE      -0.027000
     29 C20         -5.6310    -0.2730    -6.4910 cd         1 GWE      -0.597000
     30 C21         -4.4400     0.4000    -6.2900 cd         1 GWE      -0.035000
     31 C22         -3.9080     0.5010    -5.0190 cc         1 GWE      -0.131000
     32 C23         -6.4790    -1.3910    -2.9850 c3         1 GWE      -0.054900
     33 S1          -6.3280    -0.3980    -8.1560 s6         1 GWE       0.881500
     34 N2          -7.0200    -0.4940    -9.7600 nz         1 GWE      -0.810500
     35 O4          -5.1240    -0.2090    -9.2730 oh         1 GWE      -0.552200
     36 O5          -7.0300    -1.8770    -8.3490 oh         1 GWE      -0.552200
     37 H3           3.1770    -0.0220     1.2220 ha         1 GWE       0.166000
     38 H5          -0.5360     0.0100     3.3350 ha         1 GWE       0.154000
     39 H6          -1.7700     0.0240     1.2110 ha         1 GWE       0.137000
     40 H9           3.5740    -0.3940    -3.5330 ha         1 GWE       0.175000
     41 H11          2.4900    -4.4830    -4.1450 ha         1 GWE       0.168000
     42 H13          0.9380    -2.3680    -0.7790 ha         1 GWE       0.152000
     43 H15         -2.4430     0.9080    -0.5950 h1         1 GWE       0.064700
     44 H15A        -2.4400    -0.8600    -0.5330 h1         1 GWE       0.064700
     45 HN1         -4.6320     0.0590    -1.8620 hn         1 GWE       0.339500
     46 H19         -7.2190    -1.3850    -5.5830 ha         1 GWE       0.143000
     47 H21         -3.9160     0.8360    -7.1320 ha         1 GWE       0.148000
     48 H22         -2.9920     1.0570    -4.8570 ha         1 GWE       0.192000
     49 H23         -5.7920    -1.5040    -2.1550 hc         1 GWE       0.055700
     50 H23A        -7.3060    -0.7590    -2.6850 hc         1 GWE       0.055700
     51 H23B        -6.8550    -2.3630    -3.2780 hc         1 GWE       0.055700
     52 HNS         -8.0040    -0.6620    -9.6890 hn         1 GWE       0.432467
     53 HNSA        -6.5900    -1.2430   -10.2650 hn         1 GWE       0.432467
     54 H18         -5.4130    -0.5430   -10.1060 ho         1 GWE       0.468500
     55 H191        -7.0690    -2.0890    -9.2670 ho         1 GWE       0.468500
     56 H231        -6.7000     0.2800   -10.3090 hn         1 GWE       0.432467
@<TRIPOS>BOND
     1     1     2 ar
     2     2     3 ar
     3     2     8 1
     4     3    37 1
     5     4     3 ar
     6     4     7 1
     7     5     4 ar
     8     5    38 1
     9     6     1 ar
    10     6     5 ar
    11     6    39 1
    12     8    10 1
    13     9     8 2
    14    10    15 ar
    15    10    11 ar
    16    11    12 ar
    17    11    40 1
    18    12    13 ar
    19    12    20 1
    20    13    41 1
    21    14    13 ar
    22    15    14 ar
    23    15    42 1
    24    16    14 1
    25    16    17 1
    26    18    16 1
    27    19    16 1
    28    21     1 1
    29    22    21 1
    30    22    23 1
    31    22    43 1
    32    22    44 1
    33    23    25 1
    34    24    23 2
    35    25    26 2
    36    25    45 1
    37    26    27 1
    38    27    28 2
    39    27    32 1
    40    28    46 1
    41    29    28 1
    42    29    33 2
    43    30    29 1
    44    30    47 1
    45    31    26 1
    46    31    30 2
    47    31    48 1
    48    32    49 1
    49    32    50 1
    50    32    51 1
    51    33    34 1
    52    33    36 1
    53    34    52 1
    54    34    53 1
    55    35    33 1
    56    35    54 1
    57    36    55 1
    58    56    34 1
@<TRIPOS>SUBSTRUCTURE
     1 GWE         1 TEMP              0 ****  ****    0 ROOT
