@<TRIPOS>MOLECULE
GWG
   23    24     1     0     0
SMALL
bcc


@<TRIPOS>ATOM
      1 N1           0.0000     0.0000     0.0000 nc         1 GWG      -0.613100
      2 C4           2.9430    -0.0000     2.0900 ca         1 GWG      -0.059000
      3 C5           2.9500     0.0000     3.4570 ca         1 GWG      -0.074000
      4 C6           1.7570     0.0000     4.1680 ca         1 GWG      -0.076000
      5 C7           0.5540     0.0000     3.5200 ca         1 GWG      -0.069000
      6 C8           0.5180     0.0000     2.1290 ca         1 GWG      -0.262200
      7 O            3.4070     0.0010    -1.0340 o          1 GWG      -0.451100
      8 N2           1.6700     0.0000    -2.4180 nz         1 GWG       0.209600
      9 C1           1.3160     0.0000     0.0000 cd         1 GWG       0.154900
     10 C3           1.7290     0.0000     1.4090 ca         1 GWG      -0.105900
     11 N           -0.4800     0.0000     1.1900 na         1 GWG       0.682900
     12 C           -1.9110     0.0000     1.5040 c3         1 GWG      -0.021400
     13 H1           3.9580    -0.0000     1.7100 ha         1 GWG       0.131000
     14 H2           3.8740     0.0000     4.0220 ha         1 GWG       0.123000
     15 H3           1.8070     0.0000     5.2500 ha         1 GWG       0.123000
     16 H4          -0.2450     0.0000     4.2530 ha         1 GWG       0.128000
     17 H5           1.1050     0.8170    -2.5400 hn         1 GWG       0.244133
     18 H6           1.1070    -0.8170    -2.5480 hn         1 GWG       0.244133
     19 H7          -2.1550     0.8850     2.0800 h1         1 GWG       0.045033
     20 H8          -2.1550    -0.8840     2.0800 h1         1 GWG       0.045033
     21 H9          -2.4830    -0.0000     0.5840 h1         1 GWG       0.045033
     22 C2           2.2000    -0.0000    -1.1790 c          1 GWG       0.312800
     23 H23          2.4180     0.0090    -3.0840 hn         1 GWG       0.244133
@<TRIPOS>BOND
     1     1     9 2   
     2     1    11 1   
     3     2     3 ar  
     4     2    10 ar  
     5     2    13 1   
     6     3     4 ar  
     7     3    14 1   
     8     4     5 ar  
     9     4    15 1   
    10     5     6 ar  
    11     5    16 1   
    12     6    10 ar  
    13     6    11 1   
    14     7    22 2   
    15     8    17 1   
    16     8    18 1   
    17     8    22 1   
    18     8    23 1   
    19     9    10 1   
    20     9    22 1   
    21    11    12 1   
    22    12    19 1   
    23    12    20 1   
    24    12    21 1   
@<TRIPOS>SUBSTRUCTURE
     1 GWG         1 TEMP              0 ****  ****    0 ROOT
