@<TRIPOS>MOLECULE
molecule
   23    24     1     0     0
SMALL
bcc


@<TRIPOS>ATOM
      1 N1           0.0000     0.0000     0.0000 nc         1 GWG      -0.500100
      2 C4           2.9430    -0.0000     2.0900 ca         1 GWG      -0.084000
      3 C5           2.9500     0.0000     3.4570 ca         1 GWG      -0.118000
      4 C6           1.7570     0.0000     4.1680 ca         1 GWG      -0.096000
      5 C7           0.5540     0.0000     3.5200 ca         1 GWG      -0.119000
      6 C8           0.5180     0.0000     2.1290 ca         1 GWG      -0.071200
      7 O            3.4070     0.0010    -1.0340 o          1 GWG      -0.420100
      8 N2           1.6700     0.0000    -2.4180 nz         1 GWG      -0.675400
      9 C1           1.3160     0.0000     0.0000 cd         1 GWG       0.193900
     10 C3           1.7290     0.0000     1.4090 ca         1 GWG      -0.137900
     11 N           -0.4800     0.0000     1.1900 na         1 GWG       0.203900
     12 C           -1.9110     0.0000     1.5040 c3         1 GWG       0.041600
     13 H1           3.9580    -0.0000     1.7100 ha         1 GWG       0.161000
     14 H2           3.8740     0.0000     4.0220 ha         1 GWG       0.157000
     15 H3           1.8070     0.0000     5.2500 ha         1 GWG       0.157000
     16 H4          -0.2450     0.0000     4.2530 ha         1 GWG       0.158000
     17 H5           1.1050     0.8170    -2.5400 hn         1 GWG       0.479467
     18 H6           1.1070    -0.8170    -2.5480 hn         1 GWG       0.479467
     19 H7          -2.1550     0.8850     2.0800 h1         1 GWG       0.080367
     20 H8          -2.1550    -0.8840     2.0800 h1         1 GWG       0.080367
     21 H9          -2.4830    -0.0000     0.5840 h1         1 GWG       0.080367
     22 C2           2.2000    -0.0000    -1.1790 c          1 GWG       0.468800
     23 H23          2.4180     0.0090    -3.0840 hn         1 GWG       0.479467
@<TRIPOS>BOND
     1     7    22 2
     2     1    11 1
     3     1     9 2
     4    12    11 1
     5    22     9 1
     6    22     8 1
     7    11     6 1
     8     9    10 1
     9     6    10 ar
    10     6     5 ar
    11    10     2 ar
    12     5     4 ar
    13     2     3 ar
    14     4     3 ar
    15     2    13 1
    16     3    14 1
    17     4    15 1
    18     5    16 1
    19     8    17 1
    20     8    18 1
    21    12    19 1
    22    12    20 1
    23    12    21 1
    24    23     8 1
@<TRIPOS>SUBSTRUCTURE
     1 GWG         1 TEMP              0 ****  ****    0 ROOT
