@<TRIPOS>MOLECULE
molecule
   54    57     1     0     0
SMALL
bcc


@<TRIPOS>ATOM
      1 C1           0.0000     0.0000     0.0000 ca         1 GWH      -0.042200
      2 C2           1.3970     0.0000     0.0000 ca         1 GWH       0.700200
      3 N3           2.0740     0.0000     1.1370 nb         1 GWH      -0.735000
      4 C4           1.4670     0.0010     2.3080 ca         1 GWH       0.451200
      5 C5           0.0780     0.0010     2.3900 cp         1 GWH      -0.199300
      6 C6          -0.6740     0.0010     1.2100 ca         1 GWH      -0.144000
      7 O7          -0.6890     0.0050    -1.1730 os         1 GWH      -0.333900
      8 N8           2.0840    -0.0000    -1.2100 nv         1 GWH      -1.001500
      9 C9          -2.1090     0.1350    -1.0900 c3         1 GWH       0.186400
     10 C10         -2.6270     0.7970    -2.3400 ca         1 GWH      -0.048300
     11 C11         -2.7400    -1.2510    -0.9490 c3         1 GWH      -0.113100
     12 C12         -3.8490     1.4590    -2.3220 ca         1 GWH      -0.240200
     13 C13         -4.3230     2.0690    -3.4760 ca         1 GWH      -0.095000
     14 C14         -3.5800     2.0170    -4.6390 ca         1 GWH      -0.165000
     15 C15         -2.3620     1.3570    -4.6550 ca         1 GWH       0.126900
     16 C16         -1.8850     0.7530    -3.5050 ca         1 GWH      -0.146000
     17 F17         -1.6380     1.3060    -5.7930 f          1 GWH      -0.141900
     18 N18         -4.6000     1.5090    -1.1430 na         1 GWH       0.221200
     19 N19         -4.1210     1.7830     0.1480 na         1 GWH      -0.185400
     20 C20         -5.2150     1.7300     1.0220 cc         1 GWH      -0.160800
     21 C21         -6.3070     1.4450     0.3380 cd         1 GWH      -0.160800
     22 N22         -5.9820     1.3030    -1.0180 na         1 GWH      -0.185400
     23 C23         -0.5960     0.0010     3.7110 cp         1 GWH      -0.033000
     24 C24          0.1590     0.0010     4.8820 ca         1 GWH      -0.031000
     25 C25         -0.4740     0.0010     6.1090 ca         1 GWH      -0.290500
     26 C26         -1.8550     0.0010     6.1770 ca         1 GWH      -0.038000
     27 C27         -2.6100     0.0010     5.0180 ca         1 GWH      -0.144000
     28 C28         -1.9880     0.0080     3.7860 ca         1 GWH      -0.080000
     29 S29          0.4790    -0.0010     7.5900 sy         1 GWH       1.193300
     30 C30          0.7260     1.7560     7.9720 c3         1 GWH      -0.226300
     31 O31         -0.3710    -0.6050     8.5540 o          1 GWH      -0.617300
     32 O32          1.7090    -0.6060     7.2150 o          1 GWH      -0.617300
     33 H4           2.0570     0.0010     3.2160 h4         1 GWH       0.031100
     34 H6          -1.7560     0.0010     1.2420 ha         1 GWH       0.146000
     35 HN8          3.0850    -0.0260    -1.2170 hn         1 GWH       0.446300
     36 HN8A         1.5790     0.0300    -2.0730 hn         1 GWH       0.446300
     37 H9          -2.3670     0.7380    -0.2280 h1         1 GWH       0.060700
     38 H11         -3.4160    -1.4270    -1.7780 hc         1 GWH       0.050700
     39 H11A        -3.2910    -1.3050    -0.0170 hc         1 GWH       0.050700
     40 H11B        -1.9620    -2.0050    -0.9520 hc         1 GWH       0.050700
     41 H13         -5.2750     2.5850    -3.4640 ha         1 GWH       0.136000
     42 H14         -3.9510     2.4910    -5.5390 ha         1 GWH       0.144000
     43 H16         -0.9320     0.2370    -3.5200 ha         1 GWH       0.155000
     44 HN19        -3.1720     1.9790     0.3980 hn         1 GWH       0.196200
     45 H20         -5.2650     2.4060     1.8670 h4         1 GWH       0.160000
     46 H21         -7.0750     0.8220     0.7790 h4         1 GWH       0.160000
     47 HN22        -6.6180     1.0870    -1.7600 hn         1 GWH       0.196200
     48 H24          1.2410     0.0000     4.8290 ha         1 GWH       0.153000
     49 H26         -2.3470    -0.0010     7.1420 ha         1 GWH       0.150000
     50 H27         -3.6920     0.0040     5.0780 ha         1 GWH       0.136000
     51 H28         -2.5810     0.0080     2.8790 ha         1 GWH       0.134000
     52 H30          1.2430     1.8500     8.9190 h1         1 GWH       0.098367
     53 H30A         1.3180     2.2150     7.1900 h1         1 GWH       0.098367
     54 H30B        -0.2360     2.2500     8.0340 h1         1 GWH       0.098367
@<TRIPOS>BOND
     1     1     2 ar
     2     1     6 ar
     3     1     7 1
     4     2     3 ar
     5     2     8 1
     6     3     4 ar
     7     4     5 ar
     8     5     6 ar
     9     5    23 1
    10     7     9 1
    11     9    10 1
    12     9    11 1
    13    10    12 ar
    14    10    16 ar
    15    12    13 ar
    16    12    18 1
    17    13    14 ar
    18    14    15 ar
    19    15    16 ar
    20    15    17 1
    21    18    19 1
    22    18    22 1
    23    19    20 1
    24    20    21 2
    25    21    22 1
    26    23    24 ar
    27    23    28 ar
    28    24    25 ar
    29    25    26 ar
    30    25    29 1
    31    26    27 ar
    32    27    28 ar
    33    29    30 1
    34    29    31 2
    35    29    32 2
    36     4    33 1
    37     6    34 1
    38     8    35 1
    39     8    36 1
    40     9    37 1
    41    11    38 1
    42    11    39 1
    43    11    40 1
    44    13    41 1
    45    14    42 1
    46    16    43 1
    47    19    44 1
    48    20    45 1
    49    21    46 1
    50    22    47 1
    51    24    48 1
    52    26    49 1
    53    27    50 1
    54    28    51 1
    55    30    52 1
    56    30    53 1
    57    30    54 1
@<TRIPOS>SUBSTRUCTURE
     1 GWH         1 TEMP              0 ****  ****    0 ROOT
