@<TRIPOS>MOLECULE
GWI
   59    62     1     0     0
SMALL
bcc


@<TRIPOS>ATOM
      1 C1           0.0000     0.0000     0.0000 ca         1 GWI       0.138000
      2 C2           1.4030     0.0000     0.0000 ca         1 GWI      -0.197000
      3 C3           2.0940     0.0000     1.2160 ca         1 GWI      -0.023000
      4 C6          -0.6870    -0.0010     1.2050 ca         1 GWI      -0.205000
      5 C4           1.3930    -0.0010     2.4030 ca         1 GWI      -0.133000
      6 C5           0.0070    -0.0010     2.3980 ca         1 GWI      -0.027000
      7 Cl           2.2520    -0.0010     3.9130 cl         1 GWI       0.061000
      8 C7           2.1440     0.0010    -1.2740 c2         1 GWI       0.379000
      9 O1           2.6760     1.0210    -1.6680 o          1 GWI      -0.293000
     10 C8           2.2430    -1.2400    -2.0720 ca         1 GWI      -0.158000
     11 C9           3.0300    -1.2680    -3.2260 ca         1 GWI      -0.016000
     12 C10          3.1230    -2.4270    -3.9740 ca         1 GWI      -0.153000
     13 C11          2.4400    -3.5630    -3.5850 ca         1 GWI      -0.049000
     14 C12          1.6500    -3.5480    -2.4320 ca         1 GWI       0.057000
     15 C13          1.5550    -2.3840    -1.6720 ca         1 GWI      -0.051000
     16 Cl1          4.1020    -2.4550    -5.4070 cl         1 GWI       0.079000
     17 O2          -0.6800     0.0060    -1.1730 os         1 GWI      -0.232000
     18 C15         -2.1080     0.0050    -1.0950 c3         1 GWI      -0.262000
     19 C16         -2.6870     0.0110    -2.4860 c3         1 GWI       0.153000
     20 O3          -1.9500     0.0170    -3.4500 o          1 GWI      -0.418000
     21 N1          -4.0230     0.0110    -2.6590 nu         1 GWI       0.152000
     22 C17         -4.5620    -0.0840    -3.9470 ca         1 GWI      -0.059000
     23 C18         -5.7570    -0.7610    -4.1530 ca         1 GWI      -0.141000
     24 C23         -6.4760    -1.3930    -2.9900 c3         1 GWI      -0.077000
     25 C19         -6.2860    -0.8520    -5.4270 ca         1 GWI       0.020000
     26 C20         -5.6260    -0.2730    -6.4950 ca         1 GWI      -0.581000
     27 C21         -4.4350     0.4010    -6.2930 ca         1 GWI       0.037000
     28 C22         -3.9050     0.5030    -5.0220 ca         1 GWI      -0.179000
     29 N3          -7.2930     0.9160    -8.3330 ns         1 GWI      -0.437000
     30 C14         -6.7730     2.1590    -8.3480 c2         1 GWI       0.303000
     31 C24         -7.6730     3.3510    -8.5450 c3         1 GWI      -0.428000
     32 S           -6.3040    -0.3940    -8.1160 s6         1 GWI       2.366000
     33 O4          -5.2180    -0.2290    -9.0180 o          1 GWI      -0.846000
     34 C25         -6.8370     4.6320    -8.5210 c3         1 GWI      -0.170000
     35 O6          -5.5800     2.3180    -8.2030 o          1 GWI      -0.391000
     36 O5          -7.1470    -1.5380    -8.1150 o          1 GWI      -0.846000
     37 C26          0.9420    -4.7270    -2.0300 c1         1 GWI      -0.101000
     38 N2           0.3920    -5.6620    -1.6960 n1         1 GWI      -0.048000
     39 H3           3.1200    -0.3180     1.0730 ha         1 GWI       0.123000
     40 H6          -1.7310    -0.0350     0.9140 ha         1 GWI       0.164000
     41 H5          -0.6540    -0.1250     3.2470 ha         1 GWI       0.117000
     42 H9           3.5520    -0.4030    -3.6170 ha         1 GWI       0.134000
     43 H11          2.5300    -4.3680    -4.3050 ha         1 GWI       0.126000
     44 H13          0.8680    -2.0780    -0.8930 ha         1 GWI       0.138000
     45 H15         -2.1970     1.0640    -1.3020 h1         1 GWI       0.122000
     46 H15A        -2.0570    -0.5800    -2.0050 DU         1 GWI       0.347000
     47 HN1         -4.6090    -0.1030    -1.8560 hn         1 GWI       0.104000
     48 H23         -5.9280    -2.1840    -2.4930 hc         1 GWI       0.055000
     49 H23A        -6.7280    -0.6750    -2.2190 hc         1 GWI       0.055000
     50 H23B        -7.2270    -2.0040    -3.4760 hc         1 GWI       0.055000
     51 H19         -7.2480    -1.3420    -5.5200 ha         1 GWI       0.127000
     52 H21         -3.4730     0.6400    -6.7300 ha         1 GWI       0.159000
     53 H22         -2.9390     0.9690    -4.8690 ha         1 GWI       0.159000
     54 HN3         -8.2460     0.7800    -8.0600 hn         1 GWI       0.144000
     55 H24         -7.6670     3.9910    -7.6710 hc         1 GWI       0.219500
     56 H24A        -7.3870     3.7980    -9.4900 hc         1 GWI       0.219500
     57 H25         -6.9800     4.9120    -7.4840 hc         1 GWI       0.070333
     58 H25A        -7.4370     5.3930    -9.0060 hc         1 GWI       0.070333
     59 H25B        -5.8490     4.2540    -8.7550 hc         1 GWI       0.070333
@<TRIPOS>BOND
     1     1     2 1   
     2     1     4 1   
     3     1    17 1   
     4     2     3 1   
     5     2     8 1   
     6     3     5 1   
     7     3    39 1   
     8     4     6 1   
     9     4    40 1   
    10     5     6 1   
    11     5     7 1   
    12     6    41 1   
    13     8     9 1   
    14     8    10 1   
    15    10    11 1   
    16    10    15 1   
    17    11    12 1   
    18    11    42 1   
    19    12    13 1   
    20    12    16 1   
    21    13    14 1   
    22    13    43 1   
    23    14    15 1   
    24    14    37 1   
    25    15    44 1   
    26    17    18 1   
    27    18    19 1   
    28    18    45 1   
    29    18    46 1   
    30    19    20 1   
    31    19    21 1   
    32    19    46 1   
    33    21    22 1   
    34    21    47 1   
    35    22    23 1   
    36    22    28 1   
    37    23    24 1   
    38    23    25 1   
    39    24    48 1   
    40    24    49 1   
    41    24    50 1   
    42    25    26 1   
    43    25    51 1   
    44    26    27 1   
    45    26    32 1   
    46    27    28 1   
    47    27    52 1   
    48    28    53 1   
    49    29    30 1   
    50    29    32 1   
    51    29    54 1   
    52    30    31 1   
    53    30    35 1   
    54    31    34 1   
    55    31    55 1   
    56    31    56 1   
    57    32    33 1   
    58    32    36 1   
    59    34    57 1   
    60    34    58 1   
    61    34    59 1   
    62    37    38 1   
@<TRIPOS>SUBSTRUCTURE
     1 GWI         1 TEMP              0 ****  ****    0 ROOT
