@<TRIPOS>MOLECULE
molecule
   59    61     1     0     0
SMALL
bcc


@<TRIPOS>ATOM
      1 C1           0.0000     0.0000     0.0000 ca         1 GWI       0.166100
      2 C2           1.4030     0.0000     0.0000 ca         1 GWI      -0.200600
      3 C3           2.0940     0.0000     1.2160 ca         1 GWI      -0.053000
      4 C6          -0.6870    -0.0010     1.2050 ca         1 GWI      -0.204000
      5 C4           1.3930    -0.0010     2.4030 ca         1 GWI       0.012400
      6 C5           0.0070    -0.0010     2.3980 ca         1 GWI      -0.062000
      7 Cl           2.2520    -0.0010     3.9130 cl         1 GWI      -0.096400
      8 C7           2.1440     0.0010    -1.2740 c          1 GWI       0.602300
      9 O1           2.6760     1.0210    -1.6680 o          1 GWI      -0.495100
     10 C8           2.2430    -1.2400    -2.0720 ca         1 GWI      -0.171600
     11 C9           3.0300    -1.2680    -3.2260 ca         1 GWI      -0.045000
     12 C10          3.1230    -2.4270    -3.9740 ca         1 GWI      -0.005600
     13 C11          2.4400    -3.5630    -3.5850 ca         1 GWI      -0.063000
     14 C12          1.6500    -3.5480    -2.4320 ca         1 GWI      -0.001000
     15 C13          1.5550    -2.3840    -1.6720 ca         1 GWI      -0.057000
     16 Cl1          4.1020    -2.4550    -5.4070 cl         1 GWI      -0.086400
     17 O2          -0.6800     0.0060    -1.1730 os         1 GWI      -0.382900
     18 C15         -2.1080     0.0050    -1.0950 c3         1 GWI      -0.159600
     19 C16         -2.6870     0.0110    -2.4860 c          1 GWI       0.605100
     20 O3          -1.9500     0.0170    -3.4500 o          1 GWI      -0.611100
     21 N1          -4.0230     0.0110    -2.6590 ns         1 GWI      -0.457100
     22 C17         -4.5620    -0.0840    -3.9470 ca         1 GWI       0.089600
     23 C18         -5.7570    -0.7610    -4.1530 ca         1 GWI      -0.138300
     24 C23         -6.4760    -1.3930    -2.9900 c3         1 GWI      -0.063800
     25 C19         -6.2860    -0.8520    -5.4270 ca         1 GWI      -0.012000
     26 C20         -5.6260    -0.2730    -6.4950 ca         1 GWI      -0.296500
     27 C21         -4.4350     0.4010    -6.2930 ca         1 GWI      -0.004000
     28 C22         -3.9050     0.5030    -5.0220 ca         1 GWI      -0.187000
     29 N3          -7.2930     0.9160    -8.3330 ns         1 GWI      -0.618300
     30 C14         -6.7730     2.1590    -8.3480 c          1 GWI       0.687100
     31 C24         -7.6730     3.3510    -8.5450 c3         1 GWI      -0.409400
     32 S           -6.3040    -0.3940    -8.1160 sy         1 GWI       1.403900
     33 O4          -5.2180    -0.2290    -9.0180 o          1 GWI      -0.611300
     34 C25         -6.8370     4.6320    -8.5210 c3         1 GWI      -0.139100
     35 O6          -5.5800     2.3180    -8.2030 o          1 GWI      -0.592100
     36 O5          -7.1470    -1.5380    -8.1150 o          1 GWI      -0.611300
     37 C26          0.9420    -4.7270    -2.0300 cg         1 GWI       0.238800
     38 N2           0.3920    -5.6620    -1.6960 n1         1 GWI      -0.351800
     39 H3           3.1200    -0.3180     1.0730 ha         1 GWI       0.158000
     40 H6          -1.7310    -0.0350     0.9140 ha         1 GWI       0.183000
     41 H5          -0.6540    -0.1250     3.2470 ha         1 GWI       0.153000
     42 H9           3.5520    -0.4030    -3.6170 ha         1 GWI       0.168000
     43 H11          2.5300    -4.3680    -4.3050 ha         1 GWI       0.161000
     44 H13          0.8680    -2.0780    -0.8930 ha         1 GWI       0.163000
     45 H15         -2.1970     1.0640    -1.3020 h1         1 GWI       0.220200
     46 H15A        -2.0570    -0.5800    -2.0050 h1         1 GWI       0.220200
     47 HN1         -4.6090    -0.1030    -1.8560 hn         1 GWI       0.347500
     48 H23         -5.9280    -2.1840    -2.4930 hc         1 GWI       0.050367
     49 H23A        -6.7280    -0.6750    -2.2190 hc         1 GWI       0.050367
     50 H23B        -7.2270    -2.0040    -3.4760 hc         1 GWI       0.050367
     51 H19         -7.2480    -1.3420    -5.5200 ha         1 GWI       0.155000
     52 H21         -3.4730     0.6400    -6.7300 ha         1 GWI       0.193000
     53 H22         -2.9390     0.9690    -4.8690 ha         1 GWI       0.175000
     54 HN3         -8.2460     0.7800    -8.0600 hn         1 GWI       0.345500
     55 H24         -7.6670     3.9910    -7.6710 hc         1 GWI       0.197700
     56 H24A        -7.3870     3.7980    -9.4900 hc         1 GWI       0.197700
     57 H25         -6.9800     4.9120    -7.4840 hc         1 GWI       0.063367
     58 H25A        -7.4370     5.3930    -9.0060 hc         1 GWI       0.063367
     59 H25B        -5.8490     4.2540    -8.7550 hc         1 GWI       0.063367
@<TRIPOS>BOND
     1     1     2 ar
     2     1     4 ar
     3     1    17 1
     4     2     3 ar
     5     2     8 1
     6     3     5 ar
     7     4     6 ar
     8     5     6 ar
     9     5     7 1
    10     8     9 2
    11     8    10 1
    12    10    11 ar
    13    10    15 ar
    14    11    12 ar
    15    12    13 ar
    16    12    16 1
    17    13    14 ar
    18    14    15 ar
    19    14    37 1
    20    17    18 1
    21    18    19 1
    22    19    20 2
    23    19    21 1
    24    21    22 1
    25    22    23 ar
    26    22    28 ar
    27    23    24 1
    28    23    25 ar
    29    25    26 ar
    30    26    27 ar
    31    26    32 1
    32    27    28 ar
    33    29    30 1
    34    29    32 1
    35    30    31 1
    36    30    35 2
    37    31    34 1
    38    32    33 2
    39    32    36 2
    40    37    38 3
    41     3    39 1
    42     4    40 1
    43     6    41 1
    44    11    42 1
    45    13    43 1
    46    15    44 1
    47    18    45 1
    48    18    46 1
    49    21    47 1
    50    24    48 1
    51    24    49 1
    52    24    50 1
    53    25    51 1
    54    27    52 1
    55    28    53 1
    56    29    54 1
    57    31    55 1
    58    31    56 1
    59    34    57 1
    60    34    58 1
    61    34    59 1
@<TRIPOS>SUBSTRUCTURE
     1 GWI         1 TEMP              0 ****  ****    0 ROOT
