@<TRIPOS>MOLECULE
molecule
   52    54     1     0     0
SMALL
bcc


@<TRIPOS>ATOM
      1 C1           0.0000     0.0000     0.0000 ca         1 GWJ       0.180100
      2 C2           1.4030     0.0000     0.0000 ca         1 GWJ      -0.176600
      3 C3           2.0930     0.0000     1.2160 ca         1 GWJ      -0.053000
      4 C6          -0.6870    -0.0000     1.2050 ca         1 GWJ      -0.203000
      5 C4           1.3940     0.0000     2.4030 ca         1 GWJ       0.014400
      6 C5           0.0070     0.0000     2.3990 ca         1 GWJ      -0.080000
      7 Cl           2.2530     0.0000     3.9120 cl         1 GWJ      -0.081400
      8 C7           2.1440     0.0000    -1.2750 c          1 GWJ       0.601300
      9 O1           2.6750     1.0200    -1.6690 o          1 GWJ      -0.489100
     10 C8           2.2420    -1.2410    -2.0720 ca         1 GWJ      -0.140600
     11 C9           3.0280    -1.2700    -3.2270 ca         1 GWJ      -0.044000
     12 C10          3.1200    -2.4290    -3.9730 ca         1 GWJ       0.007400
     13 C11          2.4370    -3.5660    -3.5840 ca         1 GWJ      -0.064000
     14 C12          1.6470    -3.5480    -2.4320 ca         1 GWJ      -0.041000
     15 C13          1.5540    -2.3850    -1.6720 ca         1 GWJ      -0.054000
     16 Cl1          4.0990    -2.4570    -5.4070 cl         1 GWJ      -0.078400
     17 O2          -0.6810     0.0060    -1.1730 os         1 GWJ      -0.320900
     18 C15         -2.1080     0.0050    -1.0940 c3         1 GWJ      -0.073600
     19 C16         -2.6880     0.0120    -2.4840 c          1 GWJ       0.626100
     20 O3          -1.9520     0.0170    -3.4480 o          1 GWJ      -0.547100
     21 N1          -4.0250     0.0130    -2.6580 ns         1 GWJ      -0.493100
     22 C17         -4.5640    -0.0830    -3.9460 ca         1 GWJ       0.109600
     23 C18         -5.7590    -0.7600    -4.1520 ca         1 GWJ      -0.145300
     24 C23         -6.4780    -1.3920    -2.9870 c3         1 GWJ      -0.049800
     25 C19         -6.2880    -0.8530    -5.4240 ca         1 GWJ      -0.022000
     26 C20         -5.6290    -0.2730    -6.4930 ca         1 GWJ      -0.352500
     27 C21         -4.4380     0.4010    -6.2900 ca         1 GWJ      -0.033000
     28 C22         -3.9070     0.5030    -5.0200 ca         1 GWJ      -0.114000
     29 N3          -7.2960     0.9160    -8.3300 nz         1 GWJ      -0.810500
     30 S           -6.3070    -0.3950    -8.1140 sy         1 GWJ       1.198200
     31 O4          -5.2220    -0.2300    -9.0160 o          1 GWJ      -0.513800
     32 O5          -7.1500    -1.5380    -8.1120 o          1 GWJ      -0.513800
     33 C26          0.9400    -4.7270    -2.0300 cg         1 GWJ       0.231800
     34 N2           0.3730    -5.6520    -1.6950 n1         1 GWJ      -0.344800
     35 H3           3.1640     0.1580     1.1700 ha         1 GWJ       0.168000
     36 H6          -1.7620    -0.0720     1.3210 ha         1 GWJ       0.153000
     37 H5          -0.6830     0.1390     3.2220 ha         1 GWJ       0.156000
     38 H9           3.8440    -0.6070    -3.4860 ha         1 GWJ       0.174000
     39 H11          2.0910    -4.3850    -4.2020 ha         1 GWJ       0.159000
     40 H13          0.8580    -2.4510    -0.8440 ha         1 GWJ       0.149000
     41 H15         -2.5710     0.2780    -2.0340 h1         1 GWJ       0.161700
     42 H15A        -2.5070    -0.9820    -0.8910 h1         1 GWJ       0.161700
     43 HN1         -4.7020    -0.3150    -1.9980 hn         1 GWJ       0.350500
     44 H23         -6.7300    -0.4710    -2.4740 hc         1 GWJ       0.067700
     45 H23A        -7.1540    -2.1310    -3.4000 hc         1 GWJ       0.067700
     46 H23B        -5.7710    -1.8320    -2.2940 hc         1 GWJ       0.067700
     47 H19         -7.2270    -1.3930    -5.4440 ha         1 GWJ       0.167000
     48 H21         -3.7160     0.5920    -7.0750 ha         1 GWJ       0.186000
     49 H22         -3.1960     1.2620    -4.7160 ha         1 GWJ       0.186000
     50 HN3         -6.5950     1.6120    -8.1710 hn         1 GWJ       0.498133
     51 HN3A        -7.7080     0.6530    -7.4570 hn         1 GWJ       0.498133
     52 H33         -7.7570     0.9430    -9.2180 hn         1 GWJ       0.498133
@<TRIPOS>BOND
     1     1     2 ar
     2     1     4 ar
     3     1    17 1
     4     2     3 ar
     5     2     8 1
     6     3     5 ar
     7     4     6 ar
     8     5     6 ar
     9     5     7 1
    10     8     9 2
    11     8    10 1
    12    10    11 ar
    13    10    15 ar
    14    11    12 ar
    15    12    13 ar
    16    12    16 1
    17    13    14 ar
    18    14    15 ar
    19    14    33 1
    20    17    18 1
    21    18    19 1
    22    19    20 2
    23    19    21 1
    24    21    22 1
    25    22    23 ar
    26    22    28 ar
    27    23    24 1
    28    23    25 ar
    29    25    26 ar
    30    26    27 ar
    31    26    30 1
    32    27    28 ar
    33    29    30 1
    34    30    31 2
    35    30    32 2
    36    33    34 3
    37     3    35 1
    38     4    36 1
    39     6    37 1
    40    11    38 1
    41    13    39 1
    42    15    40 1
    43    18    41 1
    44    18    42 1
    45    21    43 1
    46    24    44 1
    47    24    45 1
    48    24    46 1
    49    25    47 1
    50    27    48 1
    51    28    49 1
    52    29    50 1
    53    29    51 1
    54    52    29 1
@<TRIPOS>SUBSTRUCTURE
     1 GWJ         1 TEMP              0 ****  ****    0 ROOT
