@<TRIPOS>MOLECULE
molecule
   95    97     1     0     0
SMALL
bcc


@<TRIPOS>ATOM
      1 C4           0.0000     0.0000     0.0000 c3         1 GWK      -0.074400
      2 C5           1.5300     0.0000     0.0000 c3         1 GWK      -0.076400
      3 C6           2.0410     0.0000     1.4420 c3         1 GWK      -0.070700
      4 C7           3.5700     0.0000     1.4420 c3         1 GWK      -0.096400
      5 C8           4.0810     0.1260     2.8790 c3         1 GWK       0.116700
      6 C24          2.9590     2.7780     5.4000 c3         1 GWK       0.046700
      7 C32         -1.8400     8.1060    12.5860 c3         1 GWK       0.076300
      8 C33         -1.5570     8.5880    14.0110 c3         1 GWK       0.125900
      9 O34         -1.6890     7.4880    14.9150 os         1 GWK      -0.416600
     10 C35         -0.8150     6.3950    14.6240 c3         1 GWK       0.125900
     11 C36         -1.0910     5.8910    13.2050 c3         1 GWK       0.076300
     12 N31         -0.9270     7.0020    12.2560 n3         1 GWK      -0.767600
     13 C30          0.1060     5.6130    11.4390 c3         1 GWK       0.181800
     14 O37          2.0460     4.2780    11.5810 o          1 GWK      -0.614100
     15 N28          1.0190     4.2150     9.6150 ns         1 GWK      -0.569900
     16 C27          2.0120     3.2830     9.0750 c3         1 GWK       0.046700
     17 C38          1.6240     1.8510     9.4490 c3         1 GWK      -0.109100
     18 O39          1.3400     4.2090     7.0120 o          1 GWK      -0.607100
     19 N25          2.9100     2.6500     6.8590 ns         1 GWK      -0.565900
     20 C40          3.9020     3.9220     5.0200 c3         1 GWK      -0.041100
     21 C41          3.3340     5.2270     5.5170 ca         1 GWK      -0.113300
     22 C42          3.6610     5.6860     6.7800 ca         1 GWK      -0.080000
     23 C43          3.1410     6.8820     7.2370 ca         1 GWK      -0.179000
     24 C44          2.2920     7.6220     6.4280 ca         1 GWK       0.144100
     25 O45          1.7800     8.7990     6.8760 os         1 GWK      -0.330900
     26 C46          0.9130     9.5080     5.9890 c3         1 GWK       0.129700
     27 C47          1.9670     7.1600     5.1620 ca         1 GWK      -0.179000
     28 C48          2.4920     5.9660     4.7060 ca         1 GWK      -0.080000
     29 N22          3.5910     1.3770     3.4630 ns         1 GWK      -0.577900
     30 C1           1.5310    -1.2490     2.1630 c3         1 GWK      -0.076400
     31 C2           0.0000    -1.2480     2.1640 c3         1 GWK      -0.074400
     32 C3          -0.5100    -1.2490     0.7210 c3         1 GWK      -0.073700
     33 C50         -2.0390    -1.2490     0.7220 c3         1 GWK      -0.088100
     34 C9           5.6110     0.1280     2.8780 c3         1 GWK       0.141100
     35 O21          6.0870     0.3980     4.1980 oh         1 GWK      -0.580800
     36 H1          -0.3600     0.8840     0.5130 hc         1 GWK       0.041450
     37 H2          -0.3600    -0.0020    -1.0220 hc         1 GWK       0.041450
     38 H3           1.8900     0.8860    -0.5090 hc         1 GWK       0.043700
     39 H4           1.8900    -0.8860    -0.5090 hc         1 GWK       0.043700
     40 H5           1.6750     0.8830     1.9520 hc         1 GWK       0.046700
     41 H6           3.9300     0.8380     0.8560 hc         1 GWK       0.068700
     42 H7           3.9310    -0.9250     1.0090 hc         1 GWK       0.068700
     43 H8           3.7210    -0.7120     3.4640 h1         1 GWK       0.095700
     44 H9           1.9660     2.9880     5.0230 h1         1 GWK       0.095700
     45 H11         -1.6830     8.9230    11.8910 h1         1 GWK       0.061950
     46 H12         -0.5480     8.9800    14.0650 h1         1 GWK       0.053950
     47 H13         -2.2660     9.3620    14.2780 h1         1 GWK       0.053950
     48 H14         -0.9920     5.5940    15.3320 h1         1 GWK       0.053950
     49 H15          0.2140     6.7270    14.6960 h1         1 GWK       0.053950
     50 H16         -0.3900     5.1020    12.9600 h1         1 GWK       0.061950
     51 H17         -2.1040     5.5140    13.1470 h1         1 GWK       0.061950
     52 H19          0.1030     6.5200    10.8470 h1         1 GWK       0.092200
     53 H20         -0.8760     5.1550    11.4020 h1         1 GWK       0.092200
     54 H21          0.2480     4.5080     9.0480 hn         1 GWK       0.334500
     55 H22          2.9860     3.5130     9.4900 h1         1 GWK       0.094700
     56 H23          2.4160     1.4040    10.0380 hc         1 GWK       0.051033
     57 H24          0.7080     1.8650    10.0260 hc         1 GWK       0.051033
     58 H25          1.4730     1.2710     8.5460 hc         1 GWK       0.051033
     59 H26          3.5220     2.0100     7.3260 hn         1 GWK       0.339500
     60 H27          4.8720     3.7560     5.4720 hc         1 GWK       0.052700
     61 H28          4.0070     3.9610     3.9430 hc         1 GWK       0.052700
     62 H29          4.3240     5.1070     7.4110 ha         1 GWK       0.126000
     63 H30          3.3970     7.2410     8.2260 ha         1 GWK       0.137500
     64 H31          1.4460     9.7450     5.0760 h1         1 GWK       0.040033
     65 H32          0.5830    10.4250     6.4630 h1         1 GWK       0.040033
     66 H33          0.0530     8.8920     5.7560 h1         1 GWK       0.040033
     67 H34          1.3060     7.7380     4.5270 ha         1 GWK       0.137500
     68 H35          2.2380     5.6050     3.7170 ha         1 GWK       0.126000
     69 H36          3.3380     2.1410     2.8680 hn         1 GWK       0.313500
     70 H37          1.8900    -2.1320     1.6500 hc         1 GWK       0.043700
     71 H38          1.8910    -1.2470     3.1850 hc         1 GWK       0.043700
     72 H39         -0.3590    -0.3620     2.6730 hc         1 GWK       0.041450
     73 H40         -0.3600    -2.1340     2.6730 hc         1 GWK       0.041450
     74 H41         -0.1450    -2.1320     0.2110 hc         1 GWK       0.050700
     75 H42         -2.4000    -0.3750     1.2520 hc         1 GWK       0.033367
     76 H43         -2.4000    -2.1440     1.2150 hc         1 GWK       0.033367
     77 H44         -2.4010    -1.2270    -0.2980 hc         1 GWK       0.033367
     78 H45          5.9710     0.8930     2.2010 h1         1 GWK       0.038700
     79 H46          6.8200     0.9890     4.1530 ho         1 GWK       0.397000
     80 H47          8.0830    -0.4250     2.0890 hc         1 GWK       0.047867
     81 H48          8.0090    -2.1920     2.0910 hc         1 GWK       0.047867
     82 H49          7.9200    -1.3010     3.6170 hc         1 GWK       0.047867
     83 H50          4.5330    -2.6190     2.8600 hc         1 GWK       0.047867
     84 H51          6.1480    -3.1950     3.2960 hc         1 GWK       0.047867
     85 H52          5.3450    -1.9750     4.2940 hc         1 GWK       0.047867
     86 H53          6.4290    -1.9780     0.6350 ho         1 GWK       0.405000
     87 C10          6.1230    -1.2390     2.4210 c3         1 GWK       0.127800
     88 C23          3.4630     1.4920     4.8000 c          1 GWK       0.651100
     89 C11          7.6440    -1.2910     2.5690 c3         1 GWK      -0.118600
     90 C12          5.4900    -2.3350     3.2830 c3         1 GWK      -0.118600
     91 O13          5.7700    -1.4480     1.0520 oh         1 GWK      -0.611800
     92 C26          2.0620     3.4150     7.5750 c          1 GWK       0.652100
     93 O49          3.7530     0.5590     5.5190 o          1 GWK      -0.593100
     94 C29          1.1270     4.6540    10.8840 c          1 GWK       0.608100
     95 H10         -2.8640     7.7590    12.5190 h1         1 GWK       0.061950
@<TRIPOS>BOND
     1    13    94 1
     2    13    12 1
     3     7     8 1
     4     7    12 1
     5    94    14 2
     6    94    15 1
     7     8     9 1
     8    12    11 1
     9    15    16 1
    10     9    10 1
    11    11    10 1
    12    17    16 1
    13    16    92 1
    14    92    18 2
    15    92    19 1
    16    27    28 ar
    17    27    24 ar
    18    19     6 1
    19    28    21 ar
    20    25    24 1
    21    25    26 1
    22    24    23 ar
    23    21    20 1
    24    21    22 ar
    25     6    20 1
    26     6    88 1
    27    93    88 2
    28    23    22 ar
    29    88    29 1
    30     1     2 1
    31     1    32 1
    32    33    32 1
    33     2     3 1
    34    32    31 1
    35    90    87 1
    36    29     5 1
    37     5     4 1
    38     5    34 1
    39    91    87 1
    40     3     4 1
    41     3    30 1
    42    31    30 1
    43    87    34 1
    44    87    89 1
    45    34    35 1
    46     1    36 1
    47     1    37 1
    48     2    38 1
    49     2    39 1
    50     3    40 1
    51     4    41 1
    52     4    42 1
    53     5    43 1
    54     6    44 1
    55     7    95 1
    56     7    45 1
    57     8    46 1
    58     8    47 1
    59    10    48 1
    60    10    49 1
    61    11    50 1
    62    11    51 1
    63    13    52 1
    64    13    53 1
    65    15    54 1
    66    16    55 1
    67    17    56 1
    68    17    57 1
    69    17    58 1
    70    19    59 1
    71    20    60 1
    72    20    61 1
    73    22    62 1
    74    23    63 1
    75    26    64 1
    76    26    65 1
    77    26    66 1
    78    27    67 1
    79    28    68 1
    80    29    69 1
    81    30    70 1
    82    30    71 1
    83    31    72 1
    84    31    73 1
    85    32    74 1
    86    33    75 1
    87    33    76 1
    88    33    77 1
    89    34    78 1
    90    35    79 1
    91    89    80 1
    92    89    81 1
    93    89    82 1
    94    90    83 1
    95    90    84 1
    96    90    85 1
    97    91    86 1
@<TRIPOS>SUBSTRUCTURE
     1 GWK         1 TEMP              0 ****  ****    0 ROOT
