@<TRIPOS>MOLECULE
molecule
   19    19     1     0     0
SMALL
bcc


@<TRIPOS>ATOM
      1 C12          0.0000     0.0000     0.0000 c3         1 GWM      -0.023800
      2 C01          1.5060     0.0000     0.0000 ca         1 GWM      -0.178300
      3 C02          2.1970     0.0000     1.1990 ca         1 GWM      -0.126500
      4 C03          3.5780    -0.0010     1.2010 ca         1 GWM      -0.158500
      5 C04          4.2740    -0.0000    -0.0000 ca         1 GWM       0.246100
      6 C05          3.5780    -0.0000    -1.2010 ca         1 GWM      -0.158500
      7 C06          2.1970    -0.0050    -1.1970 ca         1 GWM      -0.126500
      8 O07          5.6320    -0.0000     0.0000 os         1 GWM      -0.442500
      9 P08          6.2870    -1.4710    -0.0000 p5         1 GWM       1.125900
     10 O09          7.8870    -1.3460     0.1320 o          1 GWM      -0.886167
     11 O10          5.7570    -2.2480     1.1430 o          1 GWM      -0.886167
     12 O11          5.9200    -2.2210    -1.3760 o          1 GWM      -0.886167
     13 H1          -0.3610    -0.7320    -0.7130 hc         1 GWM       0.011700
     14 H2          -0.3610    -0.2520     0.9900 hc         1 GWM       0.011700
     15 H3          -0.3610     0.9830    -0.2770 hc         1 GWM       0.011700
     16 H4           1.6540     0.0000     2.1360 ha         1 GWM       0.088500
     17 H5           4.1190    -0.0010     2.1400 ha         1 GWM       0.145000
     18 H6           4.1180    -0.0020    -2.1400 ha         1 GWM       0.145000
     19 H7           1.6540    -0.0040    -2.1350 ha         1 GWM       0.088500
@<TRIPOS>BOND
     1     1     2 1
     2     7     2 ar
     3     7     6 ar
     4     2     3 ar
     5     6     5 ar
     6     3     4 ar
     7     5     4 ar
     8     5     8 1
     9    11     9 1
    10     8     9 1
    11     9    10 1
    12     9    12 1
    13     1    13 1
    14     1    14 1
    15     1    15 1
    16     3    16 1
    17     4    17 1
    18     6    18 1
    19     7    19 1
@<TRIPOS>SUBSTRUCTURE
     1 GWM         1 TEMP              0 ****  ****    0 ROOT
