@<TRIPOS>MOLECULE
GWP
   21    22     1     0     0
SMALL
bcc


@<TRIPOS>ATOM
      1 N1           0.0000     0.0000     0.0000 na         1 GWP       0.300100
      2 C4           2.2340     0.0020    -1.2260 cx         1 GWP      -0.159000
      3 C5           1.5850    -0.3800    -2.5580 cx         1 GWP      -0.052400
      4 C6           2.5480    -1.3500    -1.8720 cx         1 GWP      -0.052400
      5 O           -0.2840    -0.0030     4.1740 o          1 GWP      -0.452100
      6 N            1.9370    -0.0020     4.1780 nz         1 GWP       0.215600
      7 C1           0.7100    -0.0010     2.0640 cc         1 GWP       0.119800
      8 N2           1.7820     0.0000     1.2310 nc         1 GWP      -0.615000
      9 C3           1.3580     0.0000     0.0000 cd         1 GWP       0.290800
     10 C2          -0.4130    -0.0010     1.2890 cd         1 GWP      -0.272600
     11 H1          -0.5900     0.0000    -0.8080 hn         1 GWP       0.153700
     12 H2           3.0270     0.7360    -1.3020 hc         1 GWP       0.090700
     13 H3           0.5370    -0.6480    -2.5070 hc         1 GWP       0.053700
     14 H4           1.9760     0.1280    -3.4310 hc         1 GWP       0.053700
     15 H5           3.5290    -1.4350    -2.3250 hc         1 GWP       0.053700
     16 H6           2.0890    -2.2110    -1.4010 hc         1 GWP       0.053700
     17 H7           1.7820    -0.0030     5.1670 hn         1 GWP       0.246467
     18 H8           2.4590     0.8130     3.9230 hn         1 GWP       0.246467
     19 H10         -1.4380    -0.0010     1.6380 h4         1 GWP       0.179000
     20 C            0.7520    -0.0020     3.5370 c          1 GWP       0.299600
     21 HN3          2.4550    -0.8190     3.9210 hn         1 GWP       0.246467
@<TRIPOS>BOND
     1     1     9 1   
     2     1    10 1   
     3     1    11 1   
     4     2     3 1   
     5     2     4 1   
     6     2     9 1   
     7     2    12 1   
     8     3     4 1   
     9     3    13 1   
    10     3    14 1   
    11     4    15 1   
    12     4    16 1   
    13     5    20 2   
    14     6    17 1   
    15     6    18 1   
    16     6    20 1   
    17     6    21 1   
    18     7     8 1   
    19     7    10 2   
    20     7    20 1   
    21     8     9 2   
    22    10    19 1   
@<TRIPOS>SUBSTRUCTURE
     1 GWP         1 TEMP              0 ****  ****    0 ROOT
