@<TRIPOS>MOLECULE
molecule
   21    22     1     0     0
SMALL
bcc


@<TRIPOS>ATOM
      1 N1           0.0000     0.0000     0.0000 na         1 GWP      -0.267900
      2 C4           2.2340     0.0020    -1.2260 cx         1 GWP      -0.193000
      3 C5           1.5850    -0.3800    -2.5580 cx         1 GWP      -0.109900
      4 C6           2.5480    -1.3500    -1.8720 cx         1 GWP      -0.109900
      5 O           -0.2840    -0.0030     4.1740 o          1 GWP      -0.437100
      6 N            1.9370    -0.0020     4.1780 nz         1 GWP      -0.669400
      7 C1           0.7100    -0.0010     2.0640 cc         1 GWP       0.163800
      8 N2           1.7820     0.0000     1.2310 nd         1 GWP      -0.708000
      9 C3           1.3580     0.0000     0.0000 cc         1 GWP       0.505800
     10 C2          -0.4130    -0.0010     1.2890 cd         1 GWP      -0.104600
     11 H1          -0.5900     0.0000    -0.8080 hn         1 GWP       0.337700
     12 H2           3.0270     0.7360    -1.3020 hc         1 GWP       0.125700
     13 H3           0.5370    -0.6480    -2.5070 hc         1 GWP       0.089200
     14 H4           1.9760     0.1280    -3.4310 hc         1 GWP       0.089200
     15 H5           3.5290    -1.4350    -2.3250 hc         1 GWP       0.089200
     16 H6           2.0890    -2.2110    -1.4010 hc         1 GWP       0.089200
     17 H7           1.7820    -0.0030     5.1670 hn         1 GWP       0.481467
     18 H8           2.4590     0.8130     3.9230 hn         1 GWP       0.481467
     19 H10         -1.4380    -0.0010     1.6380 h4         1 GWP       0.214000
     20 C            0.7520    -0.0020     3.5370 c          1 GWP       0.453600
     21 HN3          2.4550    -0.8190     3.9210 hn         1 GWP       0.481467
@<TRIPOS>BOND
     1     3     2 1
     2     3     4 1
     3     2     9 1
     4     2     4 1
     5     1     9 1
     6     1    10 1
     7     9     8 2
     8    10     7 2
     9     8     7 1
    10     7    20 1
    11    20     5 2
    12    20     6 1
    13     1    11 1
    14     2    12 1
    15     3    13 1
    16     3    14 1
    17     4    15 1
    18     4    16 1
    19     6    17 1
    20     6    18 1
    21    10    19 1
    22    21     6 1
@<TRIPOS>SUBSTRUCTURE
     1 GWP         1 TEMP              0 ****  ****    0 ROOT
