@<TRIPOS>MOLECULE
molecule
   34    35     1     0     0
SMALL
bcc


@<TRIPOS>ATOM
      1 N1           0.0000     0.0000     0.0000 nb         1 GWS      -0.673000
      2 C4           6.3350    -3.6190     4.4160 c3         1 GWS      -0.076400
      3 C5           7.8450    -3.4180     4.5520 c3         1 GWS      -0.081400
      4 C6           8.1450    -1.9330     4.7650 c3         1 GWS      -0.076400
      5 C7           7.6310    -1.1330     3.5680 c3         1 GWS      -0.079900
      6 C8           2.0270     0.0000     1.1940 ca         1 GWS      -0.067700
      7 C10         -0.0610     0.0000     2.3490 ca         1 GWS      -0.236300
      8 C            4.1030    -0.6310     2.1700 c          1 GWS       0.659100
      9 N            3.4270    -0.0000     1.1900 ns         1 GWS      -0.478100
     10 C12          1.3180     0.0000     0.0000 ca         1 GWS       0.387200
     11 C11         -0.6940     0.0000     1.1210 ca         1 GWS       0.398200
     12 C9           1.3240     0.0000     2.3970 ca         1 GWS      -0.096000
     13 C1           5.6050    -0.5320     2.2320 c3         1 GWS      -0.154400
     14 C2           6.1200    -1.3330     3.4310 c3         1 GWS      -0.053700
     15 C3           5.8200    -2.8190     3.2180 c3         1 GWS      -0.079900
     16 H2           6.1250    -4.6710     4.2630 hc         1 GWS       0.042200
     17 H3           8.3370    -3.7590     3.6490 hc         1 GWS       0.039200
     18 H4           8.2080    -3.9840     5.4020 hc         1 GWS       0.039200
     19 H5           7.6500    -1.5910     5.6660 hc         1 GWS       0.042200
     20 H6           9.2150    -1.7920     4.8590 hc         1 GWS       0.042200
     21 H7           7.8410    -0.0810     3.7210 hc         1 GWS       0.045950
     22 H8           8.1230    -1.4770     2.6660 hc         1 GWS       0.045950
     23 H9          -0.6400     0.0000     3.2650 ha         1 GWS       0.142000
     24 H10          3.9250     0.4940     0.4770 hn         1 GWS       0.325500
     25 H11          1.8540    -0.0000    -0.9410 h4         1 GWS       0.020100
     26 H12         -1.7760     0.0000     1.0780 h4         1 GWS       0.023100
     27 H13          1.8470     0.0000     3.3450 ha         1 GWS       0.167000
     28 H14          5.8950     0.5060     2.3410 hc         1 GWS       0.062700
     29 H15          6.0320    -0.9320     1.3200 hc         1 GWS       0.062700
     30 H16          5.6290    -0.9940     4.3350 hc         1 GWS       0.068700
     31 H17          6.3160    -3.1600     2.3170 hc         1 GWS       0.045950
     32 H18          4.7510    -2.9600     3.1240 hc         1 GWS       0.045950
     33 H1           5.8430    -3.2750     5.3170 hc         1 GWS       0.042200
     34 O            3.5020    -1.2790     3.0020 o          1 GWS      -0.594100
@<TRIPOS>BOND
     1     1    10 ar
     2     1    11 ar
     3    10     6 ar
     4    11     7 ar
     5     6     9 1
     6     6    12 ar
     7     9     8 1
     8     7    12 ar
     9    13     8 1
    10    13    14 1
    11     8    34 2
    12    15    14 1
    13    15     2 1
    14    14     5 1
    15     5     4 1
    16     2     3 1
    17     3     4 1
    18     2    33 1
    19     2    16 1
    20     3    17 1
    21     3    18 1
    22     4    19 1
    23     4    20 1
    24     5    21 1
    25     5    22 1
    26     7    23 1
    27     9    24 1
    28    10    25 1
    29    11    26 1
    30    12    27 1
    31    13    28 1
    32    13    29 1
    33    14    30 1
    34    15    31 1
    35    15    32 1
@<TRIPOS>SUBSTRUCTURE
     1 GWS         1 TEMP              0 ****  ****    0 ROOT
