@<TRIPOS>MOLECULE
molecule
   34    34     1     0     0
SMALL
bcc


@<TRIPOS>ATOM
      1 N1           0.0000     0.0000     0.0000 nh         1 GWV      -0.741000
      2 C4           4.1630     0.0000     0.0000 ca         1 GWV      -0.145300
      3 C5           3.4730     0.0000     1.1990 ca         1 GWV      -0.070500
      4 C6           2.0920    -0.0000     1.2020 ca         1 GWV      -0.208000
      5 C7           1.3960     0.0000    -0.0010 ca         1 GWV       0.207600
      6 C8           2.0920    -0.0000    -1.2020 ca         1 GWV      -0.208000
      7 C10         -0.7320    -0.0070    -1.2690 c3         1 GWV       0.232600
      8 C11         -0.7330    -0.0010     1.2680 c3         1 GWV       0.232600
      9 C9           3.4730     0.0000    -1.1990 ca         1 GWV      -0.070500
     10 N            6.1540     1.3930     0.0030 n7         1 GWV      -0.813200
     11 C1           7.6220     1.4390     0.0040 c3         1 GWV       0.158500
     12 C2           8.1360     1.3320    -1.4330 c3         1 GWV      -0.090600
     13 C            8.0920     2.7600     0.6160 c3         1 GWV      -0.090600
     14 H1           4.0170    -0.0000     2.1360 ha         1 GWV       0.128500
     15 H2           1.5530    -0.0000     2.1420 ha         1 GWV       0.130500
     16 H3           1.5530     0.0000    -2.1420 ha         1 GWV       0.130500
     17 H4          -0.4680    -0.8920    -1.8340 h1         1 GWV       0.034033
     18 H5          -0.4740     0.8770    -1.8400 h1         1 GWV       0.034033
     19 H6          -1.7980    -0.0090    -1.0710 h1         1 GWV       0.034033
     20 H7          -0.4730    -0.8860     1.8350 h1         1 GWV       0.034033
     21 H8          -0.4700     0.8830     1.8380 h1         1 GWV       0.034033
     22 H9          -1.7980     0.0010     1.0700 h1         1 GWV       0.034033
     23 H10          4.0170     0.0000    -2.1360 ha         1 GWV       0.128500
     24 H11          6.0340    -0.5000    -0.8860 h1         1 GWV       0.033700
     25 H12          6.0340    -0.5050     0.8830 h1         1 GWV       0.033700
     26 H13          5.8050     1.8660     0.8130 hn         1 GWV       0.355800
     27 H15          8.0090     0.6120     0.5880 h1         1 GWV       0.021700
     28 H16          7.5120     1.9320    -2.0850 hc         1 GWV       0.038200
     29 H17          8.1030     0.2980    -1.7530 hc         1 GWV       0.038200
     30 H18          9.1570     1.6920    -1.4800 hc         1 GWV       0.038200
     31 H19          9.1710     2.8250     0.5500 hc         1 GWV       0.038200
     32 H20          7.6460     3.5860     0.0760 hc         1 GWV       0.038200
     33 H21          7.7900     2.8030     1.6560 hc         1 GWV       0.038200
     34 C3           5.6710     0.0070    -0.0000 c3         1 GWV       0.211100
@<TRIPOS>BOND
     1     7     1 1
     2     1     8 1
     3     1     5 1
     4     4     5 ar
     5     4     3 ar
     6    12    11 1
     7     5     6 ar
     8     3     2 ar
     9    13    11 1
    10    11    10 1
    11     6     9 ar
    12     2     9 ar
    13     2    34 1
    14    10    34 1
    15     3    14 1
    16     4    15 1
    17     6    16 1
    18     7    17 1
    19     7    18 1
    20     7    19 1
    21     8    20 1
    22     8    21 1
    23     8    22 1
    24     9    23 1
    25    34    24 1
    26    34    25 1
    27    10    26 1
    28    11    27 1
    29    12    28 1
    30    12    29 1
    31    12    30 1
    32    13    31 1
    33    13    32 1
    34    13    33 1
@<TRIPOS>SUBSTRUCTURE
     1 GWV         1 TEMP              0 ****  ****    0 ROOT
