@<TRIPOS>MOLECULE
GWV
   34    34     1     0     0
SMALL
bcc


@<TRIPOS>ATOM
      1 N1           0.0000     0.0000     0.0000 nh         1 GWV      -0.398000
      2 C4           4.1630     0.0000     0.0000 ca         1 GWV      -0.158300
      3 C5           3.4730     0.0000     1.1990 ca         1 GWV      -0.037000
      4 C6           2.0920    -0.0000     1.2020 ca         1 GWV      -0.193500
      5 C7           1.3960     0.0000    -0.0010 ca         1 GWV       0.081600
      6 C8           2.0920    -0.0000    -1.2020 ca         1 GWV      -0.193500
      7 C10         -0.7320    -0.0070    -1.2690 c3         1 GWV       0.213600
      8 C11         -0.7330    -0.0010     1.2680 c3         1 GWV       0.213600
      9 C9           3.4730     0.0000    -1.1990 ca         1 GWV      -0.037000
     10 N            6.1540     1.3930     0.0030 n7         1 GWV      -0.583200
     11 C1           7.6220     1.4390     0.0040 c3         1 GWV       0.113500
     12 C2           8.1360     1.3320    -1.4330 c3         1 GWV       0.001400
     13 C            8.0920     2.7600     0.6160 c3         1 GWV       0.001400
     14 H1           4.0170    -0.0000     2.1360 ha         1 GWV       0.100000
     15 H2           1.5530    -0.0000     2.1420 ha         1 GWV       0.114000
     16 H3           1.5530     0.0000    -2.1420 ha         1 GWV       0.114000
     17 H4          -0.4680    -0.8920    -1.8340 h1         1 GWV       0.003700
     18 H5          -0.4740     0.8770    -1.8400 h1         1 GWV       0.003700
     19 H6          -1.7980    -0.0090    -1.0710 h1         1 GWV       0.003700
     20 H7          -0.4730    -0.8860     1.8350 h1         1 GWV       0.003700
     21 H8          -0.4700     0.8830     1.8380 h1         1 GWV       0.003700
     22 H9          -1.7980     0.0010     1.0700 h1         1 GWV       0.003700
     23 H10          4.0170     0.0000    -2.1360 ha         1 GWV       0.100000
     24 H11          6.0340    -0.5000    -0.8860 h1         1 GWV       0.006700
     25 H12          6.0340    -0.5050     0.8830 h1         1 GWV       0.006700
     26 H13          5.8050     1.8660     0.8130 hn         1 GWV       0.257800
     27 H15          8.0090     0.6120     0.5880 h1         1 GWV       0.005700
     28 H16          7.5120     1.9320    -2.0850 hc         1 GWV       0.006367
     29 H17          8.1030     0.2980    -1.7530 hc         1 GWV       0.006367
     30 H18          9.1570     1.6920    -1.4800 hc         1 GWV       0.006367
     31 H19          9.1710     2.8250     0.5500 hc         1 GWV       0.006367
     32 H20          7.6460     3.5860     0.0760 hc         1 GWV       0.006367
     33 H21          7.7900     2.8030     1.6560 hc         1 GWV       0.006367
     34 C3           5.6710     0.0070    -0.0000 c3         1 GWV       0.210100
@<TRIPOS>BOND
     1     1     5 1   
     2     1     7 1   
     3     1     8 1   
     4     2     3 ar  
     5     2     9 ar  
     6     2    34 1   
     7     3     4 ar  
     8     3    14 1   
     9     4     5 ar  
    10     4    15 1   
    11     5     6 ar  
    12     6     9 ar  
    13     6    16 1   
    14     7    17 1   
    15     7    18 1   
    16     7    19 1   
    17     8    20 1   
    18     8    21 1   
    19     8    22 1   
    20     9    23 1   
    21    10    11 1   
    22    10    26 1   
    23    10    34 1   
    24    11    12 1   
    25    11    13 1   
    26    11    27 1   
    27    12    28 1   
    28    12    29 1   
    29    12    30 1   
    30    13    31 1   
    31    13    32 1   
    32    13    33 1   
    33    24    34 1   
    34    25    34 1   
@<TRIPOS>SUBSTRUCTURE
     1 GWV         1 TEMP              0 ****  ****    0 ROOT
