@<TRIPOS>MOLECULE
GWX
   83    85     1     0     0
SMALL
bcc


@<TRIPOS>ATOM
      1 C1          1.4380   -0.6370   -0.1850 c3        1 GWX      0.062500
      2 N2          0.0820   -1.2710   -0.3450 n4        1 GWX     -0.688800
      3 C3          1.5980   -0.0500    1.2280 c         1 GWX      0.510100
      4 C4         -0.9990   -0.2980   -0.8750 c         1 GWX      0.653100
      5 N5         -2.1880   -0.8330   -1.3900 n         1 GWX     -0.444900
      6 O6         -0.6840    0.8880   -0.8370 o         1 GWX     -0.447100
      7 O7          0.9810   -0.4540    2.2040 o         1 GWX     -0.373100
      8 N8          2.5720    1.0620    1.3850 n4        1 GWX     -0.649800
      9 C9          2.5690   -1.6550   -0.4170 c3        1 GWX     -0.118400
     10 C10         2.7440   -2.0220   -1.8850 c3        1 GWX     -0.073700
     11 C11         3.6100   -3.2770   -1.9820 c3        1 GWX     -0.077400
     12 C12         3.8160   -3.6780   -3.4290 c3        1 GWX     -0.078400
     13 C13         4.4140   -2.5470   -4.2390 c3        1 GWX     -0.087400
     14 C14         3.5820   -1.2860   -4.1250 c3        1 GWX     -0.078400
     15 C15         3.3810   -0.8880   -2.6760 c3        1 GWX     -0.077400
     16 C16        -3.4040   -0.3390   -0.7260 c3        1 GWX     -0.029300
     17 C17        -3.2570   -0.4570    0.8020 c         1 GWX      0.619100
     18 O18        -4.2160   -0.0710    1.6550 oh        1 GWX     -0.486100
     19 O19        -2.2170   -0.8780    1.3290 o         1 GWX     -0.557000
     20 C20        -4.6710   -1.0620   -1.2060 c3        1 GWX     -0.087400
     21 C21        -5.1550   -0.5430   -2.5470 c3        1 GWX     -0.081400
     22 C22        -6.4980   -1.1610   -2.9000 c3        1 GWX     -0.111400
     23 C23        -7.0000   -0.5850   -4.2210 c3        1 GWX      0.101800
     24 N24        -8.3370   -1.1120   -4.6230 n4        1 GWX     -0.837600
     25 C25         3.4360    0.9470    2.6250 c3        1 GWX      0.102500
     26 C26         4.7080    0.0800    2.4270 c3        1 GWX     -0.098400
     27 C27         3.9940    2.3400    3.0880 c3        1 GWX     -0.071000
     28 C28         5.8430    1.0110    2.8970 c3        1 GWX     -0.060700
     29 C29         5.1590    1.8400    4.0300 c3        1 GWX     -0.029000
     30 C30         6.0310    2.0590    1.7850 c3        1 GWX     -0.092400
     31 C31         4.7890    2.9560    1.9160 c3        1 GWX     -0.095400
     32 C32         6.0230    2.9630    4.5660 c3        1 GWX     -0.100100
     33 C33         4.6950    1.0180    5.2130 c3        1 GWX     -0.100100
     34 C34         2.9640    3.2350    3.6940 c3        1 GWX     -0.103100
     35 H1          1.5140    0.1890   -0.9630 hx        1 GWX      0.154700
     36 H2          0.1870   -2.0800   -0.9710 hn        1 GWX      0.491800
     37 H91C        3.5290   -1.2020   -0.0450 hc        1 GWX      0.095200
     38 H92C        2.3880   -2.5830    0.1930 hc        1 GWX      0.095200
     39 H8          3.1830    1.1250    0.5610 hn        1 GWX      0.476300
     40 H5         -4.9760    0.3190    1.1890 ho        1 GWX      0.459000
     41 H16        -3.4810    0.7670   -0.9730 h1        1 GWX      0.136700
     42 H25         2.7710    0.5250    3.4350 hx        1 GWX      0.129700
     43 H10         1.7430   -2.2580   -2.3440 hc        1 GWX      0.028700
     44 H111        4.6040   -3.0810   -1.5020 hc        1 GWX      0.045200
     45 H112        3.1210   -4.1190   -1.4250 hc        1 GWX      0.045200
     46 H151        2.7360    0.0280   -2.6290 hc        1 GWX      0.045200
     47 H152        4.3760   -0.6300   -2.2250 hc        1 GWX      0.045200
     48 H121        4.4990   -4.5680   -3.4680 hc        1 GWX      0.060700
     49 H122        2.8360   -3.9880   -3.8780 hc        1 GWX      0.060700
     50 H131        4.4810   -2.8530   -5.3160 hc        1 GWX      0.071200
     51 H132        5.4590   -2.3410   -3.8860 hc        1 GWX      0.071200
     52 H141        2.5850   -1.4470   -4.6130 hc        1 GWX      0.060700
     53 H142        4.0930   -0.4490   -4.6700 hc        1 GWX      0.060700
     54 H201       -4.5020   -2.1710   -1.2640 hc        1 GWX      0.082200
     55 H202       -5.4730   -0.8980   -0.4340 hc        1 GWX      0.082200
     56 H211       -4.4030   -0.7860   -3.3440 hc        1 GWX      0.071200
     57 H212       -5.2550    0.5750   -2.5090 hc        1 GWX      0.071200
     58 H221       -6.3890   -2.2760   -2.9770 hc        1 GWX      0.078200
     59 H222       -7.2360   -0.9480   -2.0790 hc        1 GWX      0.078200
     60 H231       -6.2730   -0.8320   -5.0500 hx        1 GWX      0.119200
     61 H232       -7.0880    0.5390   -4.1440 hx        1 GWX      0.119200
     62 H241       -9.0420   -0.8850   -3.9120 hn        1 GWX      0.472800
     63 H242       -8.6220   -0.6910   -5.5170 hn        1 GWX      0.472800
     64 H261        4.6480   -0.8370    3.0640 hc        1 GWX      0.069700
     65 H262        4.8710   -0.2410    1.3700 hc        1 GWX      0.069700
     66 H28         6.7680    0.4770    3.1950 hc        1 GWX      0.117700
     67 H311        5.0760    4.0080    2.1730 hc        1 GWX      0.054700
     68 H312        4.2070    3.0140    0.9660 hc        1 GWX      0.054700
     69 H341        3.4670    4.1230    4.1590 hc        1 GWX      0.061700
     70 H342        2.3920    2.7070    4.4970 hc        1 GWX      0.061700
     71 H343        2.2480    3.6120    2.9230 hc        1 GWX      0.061700
     72 H301        6.0990    1.5860    0.7760 hc        1 GWX      0.070700
     73 H302        6.9710    2.6420    1.9470 hc        1 GWX      0.070700
     74 H321        6.9270    2.5290    5.0610 hc        1 GWX      0.058700
     75 H322        6.3700    3.6640    3.7710 hc        1 GWX      0.058700
     76 H323        5.4530    3.5510    5.3270 hc        1 GWX      0.058700
     77 H331        4.1900    0.0680    4.9220 hc        1 GWX      0.058700
     78 H332        5.5770    0.7470    5.8490 hc        1 GWX      0.058700
     79 H333        3.9890    1.6180    5.8390 hc        1 GWX      0.058700
     80 H22        -0.2620   -1.6050    0.5790 hn        1 GWX      0.491800
     81 H52        -2.2010   -1.8230   -1.5550 hn        1 GWX      0.320500
     82 H82         2.0450    1.9490    1.4740 hn        1 GWX      0.476300
     83 H243       -8.3040   -2.1320   -4.7340 hn        1 GWX      0.472800
@<TRIPOS>BOND
     1    1    2 1   
     2    1    3 1   
     3    1    9 1   
     4    1   35 1   
     5    2    4 1   
     6    2   36 1   
     7    2   80 1   
     8    3    7 2   
     9    3    8 1   
    10    4    5 1   
    11    4    6 2   
    12    5   16 1   
    13    5   81 1   
    14    8   25 1   
    15    8   39 1   
    16    8   82 1   
    17    9   10 1   
    18    9   37 1   
    19    9   38 1   
    20   10   11 1   
    21   10   15 1   
    22   10   43 1   
    23   11   12 1   
    24   11   44 1   
    25   11   45 1   
    26   12   13 1   
    27   12   48 1   
    28   12   49 1   
    29   13   14 1   
    30   13   50 1   
    31   13   51 1   
    32   14   15 1   
    33   14   52 1   
    34   14   53 1   
    35   15   46 1   
    36   15   47 1   
    37   16   17 1   
    38   16   20 1   
    39   16   41 1   
    40   17   18 1   
    41   17   19 2   
    42   18   40 1   
    43   20   21 1   
    44   20   54 1   
    45   20   55 1   
    46   21   22 1   
    47   21   56 1   
    48   21   57 1   
    49   22   23 1   
    50   22   58 1   
    51   22   59 1   
    52   23   24 1   
    53   23   60 1   
    54   23   61 1   
    55   24   62 1   
    56   24   63 1   
    57   24   83 1   
    58   25   26 1   
    59   25   27 1   
    60   25   42 1   
    61   26   28 1   
    62   26   64 1   
    63   26   65 1   
    64   27   29 1   
    65   27   31 1   
    66   27   34 1   
    67   28   29 1   
    68   28   30 1   
    69   28   66 1   
    70   29   32 1   
    71   29   33 1   
    72   30   31 1   
    73   30   72 1   
    74   30   73 1   
    75   31   67 1   
    76   31   68 1   
    77   32   74 1   
    78   32   75 1   
    79   32   76 1   
    80   33   77 1   
    81   33   78 1   
    82   33   79 1   
    83   34   69 1   
    84   34   70 1   
    85   34   71 1   
@<TRIPOS>SUBSTRUCTURE
     1 GWX         1 TEMP              0 ****  ****    0 ROOT
