@<TRIPOS>MOLECULE
molecule
   80    82     1     0     0
SMALL
bcc


@<TRIPOS>ATOM
      1 C1           1.4650     0.0000     0.0000 c3         1 GWX       0.062700
      2 N2           0.0000     0.0000     0.0000 ns         1 GWX      -0.597900
      3 C3           1.9670     0.0000     1.4200 c          1 GWX       0.652100
      4 C4          -0.6750     0.4950    -1.0580 c          1 GWX       0.791100
      5 N5          -2.0220     0.4950    -1.0570 ns         1 GWX      -0.575900
      6 O6          -0.0670     0.9390    -2.0120 o          1 GWX      -0.662100
      7 O7           1.1800     0.0000     2.3420 o          1 GWX      -0.617100
      8 N8           3.2930    -0.0000     1.6660 ns         1 GWX      -0.576900
      9 C9           1.9740    -1.2490    -0.7220 c3         1 GWX      -0.090400
     10 C10          1.5690    -1.1880    -2.1960 c3         1 GWX      -0.066700
     11 C11          1.9690    -2.4910    -2.8890 c3         1 GWX      -0.072900
     12 C12          1.5630    -2.4300    -4.3640 c3         1 GWX      -0.073400
     13 C13          2.2720    -1.2550    -5.0400 c3         1 GWX      -0.083400
     14 C14          1.8730     0.0490    -4.3450 c3         1 GWX      -0.073400
     15 C15          2.2790    -0.0130    -2.8710 c3         1 GWX      -0.072900
     16 C16         -2.7550     1.0310    -2.2060 c3         1 GWX       0.021700
     17 C17         -2.8990     2.5240    -2.0580 c          1 GWX       0.881600
     18 O18         -3.5400     3.2330    -3.0000 o          1 GWX      -0.821300
     19 O19         -2.4360     3.0820    -1.0920 o          1 GWX      -0.821300
     20 C20         -4.1430     0.3890    -2.2710 c3         1 GWX      -0.073400
     21 C21         -3.9990    -1.1090    -2.5460 c3         1 GWX      -0.082400
     22 C22         -5.3860    -1.7510    -2.6110 c3         1 GWX      -0.112400
     23 C23         -5.2420    -3.2490    -2.8860 c3         1 GWX       0.084800
     24 N24         -6.5750    -3.8650    -2.9480 nz         1 GWX      -0.812600
     25 C25          3.7820    -0.0010     3.0460 c3         1 GWX       0.117700
     26 C26          5.1760    -0.6660     3.1250 c3         1 GWX      -0.091400
     27 C27          4.0140     1.4590     3.5420 c3         1 GWX      -0.070000
     28 C28          6.1180     0.4550     3.6600 c3         1 GWX      -0.075700
     29 C29          5.1380     1.2280     4.6130 c3         1 GWX      -0.068000
     30 C30          6.2290     1.4680     2.4790 c3         1 GWX      -0.082400
     31 C31          4.8360     2.1320     2.4010 c3         1 GWX      -0.076400
     32 C32          5.7390     2.5460     5.1070 c3         1 GWX      -0.077100
     33 C33          4.6560     0.3540     5.7710 c3         1 GWX      -0.077100
     34 C34          2.7680     2.2080     4.0200 c3         1 GWX      -0.059100
     35 H1           1.8260     0.8850    -0.5110 h1         1 GWX       0.105700
     36 H2          -0.5000    -0.3520     0.7920 hn         1 GWX       0.319500
     37 H91C         1.5430    -2.1310    -0.2650 hc         1 GWX       0.037200
     38 H92C         3.0540    -1.2950    -0.6460 hc         1 GWX       0.037200
     39 H8           3.9430    -0.0470     0.9050 hn         1 GWX       0.316500
     40 H5          -2.5210     0.1650    -0.2550 hn         1 GWX       0.289500
     41 H16         -2.2110     0.8090    -3.1160 h1         1 GWX       0.074700
     42 H25          3.0820    -0.5140     3.6950 h1         1 GWX       0.082700
     43 H10          0.4970    -1.0540    -2.2750 hc         1 GWX       0.078700
     44 H111         3.0410    -2.6240    -2.8160 hc         1 GWX       0.039700
     45 H112         1.4640    -3.3220    -2.4120 hc         1 GWX       0.039700
     46 H151         1.9930     0.9100    -2.3810 hc         1 GWX       0.039700
     47 H152         3.3510    -0.1500    -2.7990 hc         1 GWX       0.039700
     48 H121         0.4910    -2.2930    -4.4370 hc         1 GWX       0.040700
     49 H122         1.8490    -3.3530    -4.8550 hc         1 GWX       0.040700
     50 H131         1.9820    -1.2100    -6.0820 hc         1 GWX       0.033200
     51 H132         3.3450    -1.3890    -4.9630 hc         1 GWX       0.033200
     52 H141         0.8010     0.1820    -4.4180 hc         1 GWX       0.040700
     53 H142         2.3780     0.8800    -4.8220 hc         1 GWX       0.040700
     54 H201        -4.7160     0.8490    -3.0660 hc         1 GWX       0.062200
     55 H202        -4.6530     0.5360    -1.3260 hc         1 GWX       0.062200
     56 H211        -3.4890    -1.2550    -3.4910 hc         1 GWX       0.052200
     57 H212        -3.4250    -1.5690    -1.7510 hc         1 GWX       0.052200
     58 H221        -5.8960    -1.6040    -1.6660 hc         1 GWX       0.062700
     59 H222        -5.9600    -1.2910    -3.4060 hc         1 GWX       0.062700
     60 H231        -4.6680    -3.7090    -2.0910 hx         1 GWX       0.108700
     61 H232        -4.7330    -3.3950    -3.8310 hx         1 GWX       0.108700
     62 H241        -7.1050    -3.4400    -3.6830 hn         1 GWX       0.450467
     63 H242        -6.4810    -4.8450    -3.1270 hn         1 GWX       0.450467
     64 H261         5.1570    -1.5030     3.8130 hc         1 GWX       0.046200
     65 H262         5.4950    -0.9900     2.1420 hc         1 GWX       0.046200
     66 H28          7.0510     0.1290     4.1030 hc         1 GWX       0.072700
     67 H311         4.3780     1.9370     1.4390 hc         1 GWX       0.050200
     68 H312         4.9160     3.1990     2.5720 hc         1 GWX       0.050200
     69 H341         2.1190     1.5260     4.5540 hc         1 GWX       0.044033
     70 H342         3.0630     3.0160     4.6790 hc         1 GWX       0.044033
     71 H343         2.2410     2.6150     3.1650 hc         1 GWX       0.044033
     72 H301         6.4520     0.9480     1.5550 hc         1 GWX       0.040700
     73 H302         6.9900     2.2110     2.6880 hc         1 GWX       0.040700
     74 H321         5.5840     3.3160     4.3610 hc         1 GWX       0.036200
     75 H322         5.2570     2.8370     6.0330 hc         1 GWX       0.036200
     76 H323         6.8010     2.4160     5.2780 hc         1 GWX       0.036200
     77 H331         4.1270    -0.5060     5.3780 hc         1 GWX       0.036200
     78 H332         3.9910     0.9280     6.4040 hc         1 GWX       0.036200
     79 H333         5.5080     0.0200     6.3500 hc         1 GWX       0.036200
     80 H243        -7.0440    -3.7340    -2.0740 hn         1 GWX       0.450467
@<TRIPOS>BOND
     1     1     2 1
     2     1     3 1
     3     1     9 1
     4     2     4 1
     5     3     7 2
     6     3     8 1
     7     4     5 1
     8     4     6 2
     9     5    16 1
    10     8    25 1
    11     9    10 1
    12    10    11 1
    13    10    15 1
    14    11    12 1
    15    12    13 1
    16    13    14 1
    17    14    15 1
    18    16    17 1
    19    16    20 1
    20    17    18 1
    21    17    19 1
    22    20    21 1
    23    21    22 1
    24    22    23 1
    25    23    24 1
    26    25    26 1
    27    25    27 1
    28    26    28 1
    29    27    29 1
    30    27    31 1
    31    27    34 1
    32    28    29 1
    33    28    30 1
    34    29    32 1
    35    29    33 1
    36    30    31 1
    37     1    35 1
    38     2    36 1
    39     9    37 1
    40     9    38 1
    41     8    39 1
    42     5    40 1
    43    16    41 1
    44    25    42 1
    45    10    43 1
    46    11    44 1
    47    11    45 1
    48    15    46 1
    49    15    47 1
    50    12    48 1
    51    12    49 1
    52    13    50 1
    53    13    51 1
    54    14    52 1
    55    14    53 1
    56    20    54 1
    57    20    55 1
    58    21    56 1
    59    21    57 1
    60    22    58 1
    61    22    59 1
    62    23    60 1
    63    23    61 1
    64    24    62 1
    65    24    63 1
    66    26    64 1
    67    26    65 1
    68    28    66 1
    69    31    67 1
    70    31    68 1
    71    34    69 1
    72    34    70 1
    73    34    71 1
    74    30    72 1
    75    30    73 1
    76    32    74 1
    77    32    75 1
    78    32    76 1
    79    33    77 1
    80    33    78 1
    81    33    79 1
    82    80    24 1
@<TRIPOS>SUBSTRUCTURE
     1 GWX         1 TEMP              0 ****  ****    0 ROOT
