@<TRIPOS>MOLECULE
GWY
   29    30     1     0     0
SMALL
bcc


@<TRIPOS>ATOM
      1 N1           0.0000     0.0000     0.0000 nb         1 GWY      -0.649000
      2 C4           3.7340    -2.8370    -4.6790 c3         1 GWY       0.215400
      3 C5           4.1270    -1.6770    -2.6740 c3         1 GWY       0.216400
      4 C6           1.3300     0.0000     0.0000 ca         1 GWY       0.521200
      5 C7          -0.6730     0.0020     1.1330 ca         1 GWY       0.636900
      6 C8           1.2570     0.0020     2.3860 ca         1 GWY       0.445200
      7 C9           2.0050     0.0000     1.2230 ca         1 GWY      -0.270200
      8 N2          -0.0660     0.0030     2.3030 nb         1 GWY      -0.620000
      9 N            2.0340    -0.0020    -1.1940 nh         1 GWY      -0.517300
     10 C            1.7550     1.2120    -1.9710 c3         1 GWY       0.181100
     11 C1           1.7390    -1.2090    -1.9770 c3         1 GWY       0.160800
     12 C2           2.7100    -1.3010    -3.1560 c3         1 GWY      -0.094700
     13 O            4.6700    -2.6120    -3.6130 os         1 GWY      -0.415600
     14 C3           2.3470    -2.4980    -4.0780 c3         1 GWY      -0.058400
     15 H2           3.9520    -2.1800    -5.5130 h1         1 GWY       0.005700
     16 H3           4.7490    -0.7910    -2.6380 h1         1 GWY       0.011200
     17 H4           4.0710    -2.1340    -1.6930 h1         1 GWY       0.011200
     18 H5          -1.7560     0.0020     1.1030 h5         1 GWY       0.003100
     19 H6           1.7460     0.0020     3.3520 h4         1 GWY      -0.003900
     20 H7           2.6490     1.5130    -2.5040 h1         1 GWY       0.010367
     21 H8           1.4490     2.0070    -1.3020 h1         1 GWY       0.010367
     22 H9           0.9610     1.0120    -2.6810 h1         1 GWY       0.010367
     23 H10          1.8510    -2.0840    -1.3480 h1         1 GWY       0.024200
     24 H11          0.7230    -1.1580    -2.3490 h1         1 GWY       0.024200
     25 H12          2.7310    -0.3770    -3.7210 hc         1 GWY       0.043700
     26 H13          1.9610    -3.3290    -3.5000 hc         1 GWY       0.026700
     27 H14          1.6520    -2.1940    -4.8520 hc         1 GWY       0.026700
     28 Cl           3.7410    -0.0020     1.2810 cl         1 GWY       0.037600
     29 H1           3.7640    -3.8740    -4.9910 h1         1 GWY       0.005700
@<TRIPOS>BOND
     1     1     4 ar  
     2     1     5 ar  
     3     2    13 1   
     4     2    14 1   
     5     2    15 1   
     6     2    29 1   
     7     3    12 1   
     8     3    13 1   
     9     3    16 1   
    10     3    17 1   
    11     4     7 ar  
    12     4     9 1   
    13     5     8 ar  
    14     5    18 1   
    15     6     7 ar  
    16     6     8 ar  
    17     6    19 1   
    18     7    28 1   
    19     9    10 1   
    20     9    11 1   
    21    10    20 1   
    22    10    21 1   
    23    10    22 1   
    24    11    12 1   
    25    11    23 1   
    26    11    24 1   
    27    12    14 1   
    28    12    25 1   
    29    14    26 1   
    30    14    27 1   
@<TRIPOS>SUBSTRUCTURE
     1 GWY         1 TEMP              0 ****  ****    0 ROOT
