@<TRIPOS>MOLECULE
molecule
   29    30     1     0     0
SMALL
bcc


@<TRIPOS>ATOM
      1 N1           0.0000     0.0000     0.0000 nb         1 GWY      -0.766000
      2 C4           3.7340    -2.8370    -4.6790 c3         1 GWY       0.132400
      3 C5           4.1270    -1.6770    -2.6740 c3         1 GWY       0.139400
      4 C6           1.3300     0.0000     0.0000 ca         1 GWY       0.641200
      5 C7          -0.6730     0.0020     1.1330 ca         1 GWY       0.686900
      6 C8           1.2570     0.0020     2.3860 ca         1 GWY       0.464200
      7 C9           2.0050     0.0000     1.2230 ca         1 GWY      -0.199200
      8 N2          -0.0660     0.0030     2.3030 nb         1 GWY      -0.730000
      9 N            2.0340    -0.0020    -1.1940 nh         1 GWY      -0.717300
     10 C            1.7550     1.2120    -1.9710 c3         1 GWY       0.160100
     11 C1           1.7390    -1.2090    -1.9770 c3         1 GWY       0.178800
     12 C2           2.7100    -1.3010    -3.1560 c3         1 GWY      -0.107700
     13 O            4.6700    -2.6120    -3.6130 os         1 GWY      -0.423600
     14 C3           2.3470    -2.4980    -4.0780 c3         1 GWY      -0.116400
     15 H2           3.9520    -2.1800    -5.5130 h1         1 GWY       0.047200
     16 H3           4.7490    -0.7910    -2.6380 h1         1 GWY       0.052200
     17 H4           4.0710    -2.1340    -1.6930 h1         1 GWY       0.052200
     18 H5          -1.7560     0.0020     1.1030 h5         1 GWY       0.064100
     19 H6           1.7460     0.0020     3.3520 h4         1 GWY       0.044100
     20 H7           2.6490     1.5130    -2.5040 h1         1 GWY       0.043700
     21 H8           1.4490     2.0070    -1.3020 h1         1 GWY       0.043700
     22 H9           0.9610     1.0120    -2.6810 h1         1 GWY       0.043700
     23 H10          1.8510    -2.0840    -1.3480 h1         1 GWY       0.052200
     24 H11          0.7230    -1.1580    -2.3490 h1         1 GWY       0.052200
     25 H12          2.7310    -0.3770    -3.7210 hc         1 GWY       0.065700
     26 H13          1.9610    -3.3290    -3.5000 hc         1 GWY       0.056700
     27 H14          1.6520    -2.1940    -4.8520 hc         1 GWY       0.056700
     28 Cl           3.7410    -0.0020     1.2810 cl         1 GWY      -0.065400
     29 H1           3.7640    -3.8740    -4.9910 h1         1 GWY       0.047200
@<TRIPOS>BOND
     1     8     6 ar
     2     8     5 ar
     3     6     7 ar
     4     5     1 ar
     5     7    28 1
     6     7     4 ar
     7     1     4 ar
     8     4     9 1
     9     9    10 1
    10     9    11 1
    11    11    12 1
    12    12    14 1
    13    12     3 1
    14    14     2 1
    15     3    13 1
    16     2    13 1
    17     2    29 1
    18     2    15 1
    19     3    16 1
    20     3    17 1
    21     5    18 1
    22     6    19 1
    23    10    20 1
    24    10    21 1
    25    10    22 1
    26    11    23 1
    27    11    24 1
    28    12    25 1
    29    14    26 1
    30    14    27 1
@<TRIPOS>SUBSTRUCTURE
     1 GWY         1 TEMP              0 ****  ****    0 ROOT
