@<TRIPOS>MOLECULE
molecule
   35    37     1     0     0
SMALL
bcc


@<TRIPOS>ATOM
      1 N1           0.0000     0.0000     0.0000 n          1 GX4      -0.491800
      2 C4           1.4320    -2.2550     4.3010 ca         1 GX4      -0.142500
      3 C5           1.9750    -2.3870     5.5630 ca         1 GX4      -0.142000
      4 C6           1.9570     0.0000     1.4530 c3         1 GX4       0.144300
      5 C7           1.4710     0.0000     0.0000 c3         1 GX4       0.106500
      6 C8          -0.6960    -1.0070     0.8160 c3         1 GX4       0.106500
      7 C10         -0.6920     0.9010    -0.7240 c          1 GX4       0.699100
      8 C13         -0.8020     2.9200    -2.3530 cx         1 GX4      -0.109900
      9 O           -1.9050     0.8910    -0.7080 o          1 GX4      -0.610100
     10 C11          0.0400     1.9240    -1.5540 cx         1 GX4      -0.237700
     11 C12         -0.0430     3.3860    -1.1090 cx         1 GX4      -0.109900
     12 C9          -0.1200    -0.9650     2.2360 c3         1 GX4       0.144300
     13 N            1.3400    -1.1190     2.1720 nh         1 GX4      -0.593000
     14 C3           1.8840    -1.2510     3.4540 ca         1 GX4       0.088600
     15 C2           2.8760    -0.3780     3.8820 ca         1 GX4      -0.142500
     16 C1           3.4100    -0.5100     5.1480 ca         1 GX4      -0.142000
     17 C            2.9630    -1.5150     5.9890 ca         1 GX4       0.107900
     18 F            3.4870    -1.6430     7.2270 f          1 GX4      -0.142900
     19 H2           1.6250    -3.1720     6.2230 ha         1 GX4       0.146000
     20 H3           1.6760     0.9320     1.9270 h1         1 GX4       0.051450
     21 H4           3.0350    -0.1100     1.4720 h1         1 GX4       0.051450
     22 H5           1.8340    -0.8870    -0.5050 h1         1 GX4       0.065700
     23 H6           1.8340     0.8870    -0.5050 h1         1 GX4       0.065700
     24 H7          -0.5410    -1.9900     0.3900 h1         1 GX4       0.065700
     25 H8          -1.7550    -0.7800     0.8470 h1         1 GX4       0.065700
     26 H9          -0.3810     3.2330    -3.3010 hc         1 GX4       0.083950
     27 H10         -1.8740     2.8240    -2.2370 hc         1 GX4       0.083950
     28 H11          0.9770     1.6450    -2.0210 hc         1 GX4       0.087700
     29 H12          0.8420     3.9830    -1.2970 hc         1 GX4       0.083950
     30 H13         -0.6520     3.5740    -0.2330 hc         1 GX4       0.083950
     31 H14         -0.3630    -0.0150     2.6960 h1         1 GX4       0.051450
     32 H15         -0.5420    -1.7750     2.8200 h1         1 GX4       0.051450
     33 H16          3.2280     0.4070     3.2240 ha         1 GX4       0.142500
     34 H17          4.1840     0.1710     5.4830 ha         1 GX4       0.146000
     35 H1           0.6590    -2.9370     3.9680 ha         1 GX4       0.142500
@<TRIPOS>BOND
     1    16    15 ar
     2    16    17 ar
     3    15    14 ar
     4    18    17 1
     5    17     3 ar
     6     4     5 1
     7     4    13 1
     8    14    13 1
     9    14     2 ar
    10     5     1 1
    11     3     2 ar
    12    13    12 1
    13     9     7 2
    14     1     7 1
    15     1     6 1
    16    12     6 1
    17     7    10 1
    18    10     8 1
    19    10    11 1
    20     8    11 1
    21     2    35 1
    22     3    19 1
    23     4    20 1
    24     4    21 1
    25     5    22 1
    26     5    23 1
    27     6    24 1
    28     6    25 1
    29     8    26 1
    30     8    27 1
    31    10    28 1
    32    11    29 1
    33    11    30 1
    34    12    31 1
    35    12    32 1
    36    15    33 1
    37    16    34 1
@<TRIPOS>SUBSTRUCTURE
     1 GX4         1 TEMP              0 ****  ****    0 ROOT
