@<TRIPOS>MOLECULE
GX4
   35    37     1     0     0
SMALL
bcc


@<TRIPOS>ATOM
      1 N1           0.0000     0.0000     0.0000 n          1 GX4      -0.155800
      2 C4           1.4320    -2.2550     4.3010 ca         1 GX4      -0.122000
      3 C5           1.9750    -2.3870     5.5630 ca         1 GX4      -0.104000
      4 C6           1.9570     0.0000     1.4530 c3         1 GX4       0.117300
      5 C7           1.4710     0.0000     0.0000 c3         1 GX4       0.048500
      6 C8          -0.6960    -1.0070     0.8160 c3         1 GX4       0.048500
      7 C10         -0.6920     0.9010    -0.7240 c          1 GX4       0.632100
      8 C13         -0.8020     2.9200    -2.3530 cx         1 GX4      -0.050400
      9 O           -1.9050     0.8910    -0.7080 o          1 GX4      -0.648100
     10 C11          0.0400     1.9240    -1.5540 cx         1 GX4      -0.222700
     11 C12         -0.0430     3.3860    -1.1090 cx         1 GX4      -0.050400
     12 C9          -0.1200    -0.9650     2.2360 c3         1 GX4       0.117300
     13 N            1.3400    -1.1190     2.1720 nh         1 GX4      -0.357000
     14 C3           1.8840    -1.2510     3.4540 ca         1 GX4       0.008600
     15 C2           2.8760    -0.3780     3.8820 ca         1 GX4      -0.122000
     16 C1           3.4100    -0.5100     5.1480 ca         1 GX4      -0.104000
     17 C            2.9630    -1.5150     5.9890 ca         1 GX4       0.080900
     18 F            3.4870    -1.6430     7.2270 f          1 GX4      -0.128900
     19 H2           1.6250    -3.1720     6.2230 ha         1 GX4       0.118000
     20 H3           1.6760     0.9320     1.9270 h1         1 GX4       0.027200
     21 H4           3.0350    -0.1100     1.4720 h1         1 GX4       0.027200
     22 H5           1.8340    -0.8870    -0.5050 h1         1 GX4       0.037450
     23 H6           1.8340     0.8870    -0.5050 h1         1 GX4       0.037450
     24 H7          -0.5410    -1.9900     0.3900 h1         1 GX4       0.037450
     25 H8          -1.7550    -0.7800     0.8470 h1         1 GX4       0.037450
     26 H9          -0.3810     3.2330    -3.3010 hc         1 GX4       0.051700
     27 H10         -1.8740     2.8240    -2.2370 hc         1 GX4       0.051700
     28 H11          0.9770     1.6450    -2.0210 hc         1 GX4       0.066700
     29 H12          0.8420     3.9830    -1.2970 hc         1 GX4       0.051700
     30 H13         -0.6520     3.5740    -0.2330 hc         1 GX4       0.051700
     31 H14         -0.3630    -0.0150     2.6960 h1         1 GX4       0.027200
     32 H15         -0.5420    -1.7750     2.8200 h1         1 GX4       0.027200
     33 H16          3.2280     0.4070     3.2240 ha         1 GX4       0.122000
     34 H17          4.1840     0.1710     5.4830 ha         1 GX4       0.118000
     35 H1           0.6590    -2.9370     3.9680 ha         1 GX4       0.122000
@<TRIPOS>BOND
     1     1     5 1   
     2     1     6 1   
     3     1     7 1   
     4     2     3 ar  
     5     2    14 ar  
     6     2    35 1   
     7     3    17 ar  
     8     3    19 1   
     9     4     5 1   
    10     4    13 1   
    11     4    20 1   
    12     4    21 1   
    13     5    22 1   
    14     5    23 1   
    15     6    12 1   
    16     6    24 1   
    17     6    25 1   
    18     7     9 2   
    19     7    10 1   
    20     8    10 1   
    21     8    11 1   
    22     8    26 1   
    23     8    27 1   
    24    10    11 1   
    25    10    28 1   
    26    11    29 1   
    27    11    30 1   
    28    12    13 1   
    29    12    31 1   
    30    12    32 1   
    31    13    14 1   
    32    14    15 ar  
    33    15    16 ar  
    34    15    33 1   
    35    16    17 ar  
    36    16    34 1   
    37    17    18 1   
@<TRIPOS>SUBSTRUCTURE
     1 GX4         1 TEMP              0 ****  ****    0 ROOT
