@<TRIPOS>MOLECULE
molecule
   30    31     1     0     0
SMALL
bcc


@<TRIPOS>ATOM
      1 N1           0.0000     0.0000     0.0000 ns         1 GX7      -0.446100
      2 C4          -2.1890    -0.0120     3.5860 c3         1 GX7       0.246500
      3 C5          -2.6900    -0.6210     4.8970 c3         1 GX7      -0.095900
      4 C6          -4.2190    -0.6280     4.9050 c3         1 GX7      -0.078900
      5 C7          -4.7350     0.8080     4.7800 c3         1 GX7      -0.083400
      6 C8          -4.2350     1.4170     3.4680 c3         1 GX7      -0.078900
      7 O1           1.9430     0.0010    -1.0590 o          1 GX7      -0.662500
      8 C3           1.3460     0.0000     0.0000 c          1 GX7       0.800500
      9 C           -0.7000    -0.0010     1.1820 cc         1 GX7      -0.110400
     10 N            2.0390     0.0000     1.1540 ns         1 GX7      -0.554500
     11 C2           1.3940    -0.0000     2.3370 c          1 GX7       0.705700
     12 O            2.0230    -0.0010     3.3810 o          1 GX7      -0.627500
     13 C1          -0.0270    -0.0060     2.3560 cd         1 GX7       0.017800
     14 N2          -0.7240    -0.0070     3.5780 nu         1 GX7      -0.808000
     15 C9          -2.7050     1.4230     3.4600 c3         1 GX7      -0.095900
     16 H1          -2.5560    -0.6000     2.7540 h1         1 GX7       0.049700
     17 H3          -2.3250    -1.6380     4.9840 hc         1 GX7       0.050450
     18 H4          -4.5730    -1.0570     5.8350 hc         1 GX7       0.043950
     19 H5          -4.5810    -1.2140     4.0690 hc         1 GX7       0.043950
     20 H6          -4.3690     1.3960     5.6130 hc         1 GX7       0.044700
     21 H7          -5.8190     0.8020     4.7840 hc         1 GX7       0.044700
     22 H8          -4.5970     0.8260     2.6360 hc         1 GX7       0.043950
     23 H9          -4.5990     2.4340     3.3820 hc         1 GX7       0.043950
     24 H10         -1.7830    -0.0030     1.1750 h4         1 GX7       0.167000
     25 H11          3.0400     0.0000     1.1330 hn         1 GX7       0.366500
     26 H13         -0.2180    -0.0200     4.4420 hn         1 GX7       0.459800
     27 H15         -2.3520     1.8520     2.5300 hc         1 GX7       0.050450
     28 H16         -2.3430     2.0100     4.2950 hc         1 GX7       0.050450
     29 H17         -0.4960     0.0040    -0.8690 hn         1 GX7       0.357500
     30 H2          -2.3280    -0.0300     5.7300 hc         1 GX7       0.050450
@<TRIPOS>BOND
     1    12    11 2
     2    10    11 1
     3    10     8 1
     4     7     8 2
     5    11    13 1
     6     8     1 1
     7    13    14 1
     8    13     9 2
     9     1     9 1
    10    14     2 1
    11    15     2 1
    12    15     6 1
    13     2     3 1
    14     3     4 1
    15     6     5 1
    16     4     5 1
    17     2    16 1
    18     3    30 1
    19     3    17 1
    20     4    18 1
    21     4    19 1
    22     5    20 1
    23     5    21 1
    24     6    22 1
    25     6    23 1
    26     9    24 1
    27    10    25 1
    28    14    26 1
    29    15    27 1
    30    15    28 1
    31     1    29 1
@<TRIPOS>SUBSTRUCTURE
     1 GX7         1 TEMP              0 ****  ****    0 ROOT
