@<TRIPOS>MOLECULE
GX7
   30    31     1     0     0
SMALL
bcc


@<TRIPOS>ATOM
      1 N1           0.0000     0.0000     0.0000 ns         1 GX7       0.039900
      2 C4          -2.1890    -0.0120     3.5860 c3         1 GX7       0.131500
      3 C5          -2.6900    -0.6210     4.8970 c3         1 GX7      -0.040900
      4 C6          -4.2190    -0.6280     4.9050 c3         1 GX7      -0.018900
      5 C7          -4.7350     0.8080     4.7800 c3         1 GX7      -0.027400
      6 C8          -4.2350     1.4170     3.4680 c3         1 GX7      -0.018900
      7 O1           1.9430     0.0010    -1.0590 o          1 GX7      -0.715500
      8 C3           1.3460     0.0000     0.0000 c          1 GX7       0.560500
      9 C           -0.7000    -0.0010     1.1820 cc         1 GX7      -0.275400
     10 N            2.0390     0.0000     1.1540 ns         1 GX7      -0.112500
     11 C2           1.3940    -0.0000     2.3370 c          1 GX7       0.617700
     12 O            2.0230    -0.0010     3.3810 o          1 GX7      -0.672500
     13 C1          -0.0270    -0.0060     2.3560 cd         1 GX7      -0.112200
     14 N2          -0.7240    -0.0070     3.5780 nu         1 GX7      -0.385000
     15 C9          -2.7050     1.4230     3.4600 c3         1 GX7      -0.040900
     16 H1          -2.5560    -0.6000     2.7540 h1         1 GX7       0.034700
     17 H3          -2.3250    -1.6380     4.9840 hc         1 GX7       0.022700
     18 H4          -4.5730    -1.0570     5.8350 hc         1 GX7       0.014950
     19 H5          -4.5810    -1.2140     4.0690 hc         1 GX7       0.014950
     20 H6          -4.3690     1.3960     5.6130 hc         1 GX7       0.016700
     21 H7          -5.8190     0.8020     4.7840 hc         1 GX7       0.016700
     22 H8          -4.5970     0.8260     2.6360 hc         1 GX7       0.014950
     23 H9          -4.5990     2.4340     3.3820 hc         1 GX7       0.014950
     24 H10         -1.7830    -0.0030     1.1750 h4         1 GX7       0.150000
     25 H11          3.0400     0.0000     1.1330 hn         1 GX7       0.206500
     26 H13         -0.2180    -0.0200     4.4420 hn         1 GX7       0.312800
     27 H15         -2.3520     1.8520     2.5300 hc         1 GX7       0.022700
     28 H16         -2.3430     2.0100     4.2950 hc         1 GX7       0.022700
     29 H17         -0.4960     0.0040    -0.8690 hn         1 GX7       0.185500
     30 H2          -2.3280    -0.0300     5.7300 hc         1 GX7       0.022700
@<TRIPOS>BOND
     1     1     8 1   
     2     1     9 1   
     3     1    29 1   
     4     2     3 1   
     5     2    14 1   
     6     2    15 1   
     7     2    16 1   
     8     3     4 1   
     9     3    17 1   
    10     3    30 1   
    11     4     5 1   
    12     4    18 1   
    13     4    19 1   
    14     5     6 1   
    15     5    20 1   
    16     5    21 1   
    17     6    15 1   
    18     6    22 1   
    19     6    23 1   
    20     7     8 2   
    21     8    10 1   
    22     9    13 2   
    23     9    24 1   
    24    10    11 1   
    25    10    25 1   
    26    11    12 2   
    27    11    13 1   
    28    13    14 1   
    29    14    26 1   
    30    15    27 1   
    31    15    28 1   
@<TRIPOS>SUBSTRUCTURE
     1 GX7         1 TEMP              0 ****  ****    0 ROOT
