@<TRIPOS>MOLECULE
molecule
   21    21     1     0     0
SMALL
bcc


@<TRIPOS>ATOM
      1 C10          0.0000     0.0000     0.0000 ca         1 GXD       0.068400
      2 C13          0.0060     0.0000     2.3970 ca         1 GXD      -0.105000
      3 C15          2.0920     0.0000     1.2170 ca         1 GXD       0.068400
      4 C02          5.6190     0.0000    -2.9540 c          1 GXD       0.809600
      5 C04          4.1530    -0.0010    -2.6860 c          1 GXD       0.461100
      6 C06          3.6450    -0.0000    -1.2660 c3         1 GXD      -0.287400
      7 C09          1.4000     0.0000     0.0000 ca         1 GXD      -0.150600
      8 C12         -0.6860     0.0000     1.1980 ca         1 GXD      -0.146000
      9 C14          1.3900     0.0000     2.4050 ca         1 GXD      -0.146000
     10 O01          6.4040     0.0000    -2.0290 o          1 GXD      -0.814800
     11 O03          6.0710    -0.0010    -4.2220 o          1 GXD      -0.814800
     12 O05          3.3700    -0.0010    -3.6060 o          1 GXD      -0.504100
     13 O08          1.5350    -0.0010    -2.3230 o          1 GXD      -0.463100
     14 Cl1         -0.8720     0.0060    -1.5010 cl         1 GXD      -0.061400
     15 Cl2          3.8280    -0.0000     1.2310 cl         1 GXD      -0.061400
     16 H1          -0.5380     0.0000     3.3330 ha         1 GXD       0.131000
     17 H2           4.0050     0.8850    -0.7550 hc         1 GXD       0.094700
     18 H3           4.0050    -0.8840    -0.7540 hc         1 GXD       0.094700
     19 H4          -1.7690    -0.0000     1.2000 ha         1 GXD       0.139500
     20 H5           1.9240    -0.0000     3.3480 ha         1 GXD       0.139500
     21 C07          2.1390    -0.0000    -1.2710 c          1 GXD       0.548700
@<TRIPOS>BOND
     1    14     1 1
     2    13    21 2
     3     1     8 ar
     4     1     7 ar
     5    12     5 2
     6     8     2 ar
     7    21     7 1
     8    21     6 1
     9     7     3 ar
    10     2     9 ar
    11     5     6 1
    12     5     4 1
    13     3     9 ar
    14     3    15 1
    15    10     4 1
    16     4    11 1
    17     2    16 1
    18     6    17 1
    19     6    18 1
    20     8    19 1
    21     9    20 1
@<TRIPOS>SUBSTRUCTURE
     1 GXD         1 TEMP              0 ****  ****    0 ROOT
