@<TRIPOS>MOLECULE
molecule
   13    13     1     0     0
SMALL
bcc


@<TRIPOS>ATOM
      1 SE           0.0000     0.0000     0.0000 sh         1 GXE      -0.497700
      2 C            1.9610     0.0000     0.0000 ca         1 GXE       0.124900
      3 C1           2.6520     0.0000     1.1970 ca         1 GXE      -0.101000
      4 C2           4.0340     0.0010     1.1970 ca         1 GXE      -0.132000
      5 C3           4.7250    -0.0010     0.0000 ca         1 GXE      -0.116000
      6 C4           4.0340    -0.0020    -1.1970 ca         1 GXE      -0.132000
      7 C5           2.6520    -0.0060    -1.1970 ca         1 GXE      -0.101000
      8 H1          -0.4810     1.3610    -0.0030 hs         1 GXE       0.259800
      9 H2           2.1100     0.0010     2.1350 ha         1 GXE       0.145000
     10 H3           4.5760     0.0010     2.1350 ha         1 GXE       0.136000
     11 H4           5.8080     0.0020    -0.0000 ha         1 GXE       0.133000
     12 H5           4.5760    -0.0040    -2.1350 ha         1 GXE       0.136000
     13 H6           2.1100    -0.0070    -2.1350 ha         1 GXE       0.145000
@<TRIPOS>BOND
     1     3     4 ar
     2     3     2 ar
     3     4     5 ar
     4     1     2 1
     5     2     7 ar
     6     5     6 ar
     7     7     6 ar
     8     1     8 1
     9     3     9 1
    10     4    10 1
    11     5    11 1
    12     6    12 1
    13     7    13 1
@<TRIPOS>SUBSTRUCTURE
     1 GXE         1 TEMP              0 ****  ****    0 ROOT
