@<TRIPOS>MOLECULE
molecule
   21    21     1     0     0
SMALL
bcc


@<TRIPOS>ATOM
      1 C10          0.0000     0.0000     0.0000 ca         1 GXG       0.201900
      2 C13          0.0070    -0.0040     2.3980 ca         1 GXG      -0.070000
      3 C15          2.0950     0.0000     1.2190 ca         1 GXG       0.201900
      4 C02          1.8830    -0.0050    -5.1250 c          1 GXG       0.809600
      5 C04          2.3750    -0.0030    -3.7190 c          1 GXG       0.462100
      6 C06          1.3920    -0.0020    -2.5760 c3         1 GXG      -0.279400
      7 C09          1.4020     0.0000     0.0000 ca         1 GXG      -0.241600
      8 C12         -0.6850     0.0010     1.2000 ca         1 GXG      -0.209000
      9 C14          1.3910    -0.0090     2.4080 ca         1 GXG      -0.209000
     10 F11         -0.6780     0.0050    -1.1680 f          1 GXG      -0.110900
     11 F16          3.4460    -0.0050     1.2320 f          1 GXG      -0.110900
     12 O01          2.7620    -0.0060    -6.1460 o          1 GXG      -0.813300
     13 O03          0.6930    -0.0040    -5.3520 o          1 GXG      -0.813300
     14 O05          3.5620    -0.0040    -3.4930 o          1 GXG      -0.502100
     15 O08          3.3540    -0.0020    -1.2640 o          1 GXG      -0.467100
     16 H1          -0.5380    -0.0070     3.3340 ha         1 GXG       0.132000
     17 H2           0.7690    -0.8860    -2.6350 hc         1 GXG       0.090700
     18 H3           0.7690     0.8830    -2.6360 hc         1 GXG       0.090700
     19 H4          -1.7680     0.0030     1.2030 ha         1 GXG       0.142500
     20 H5           1.9230    -0.0110     3.3510 ha         1 GXG       0.142500
     21 C07          2.1410    -0.0010    -1.2690 c          1 GXG       0.552700
@<TRIPOS>BOND
     1    15    21 2
     2    11     3 1
     3    14     5 2
     4     3     9 ar
     5     3     7 ar
     6    21     7 1
     7    21     6 1
     8     9     2 ar
     9     7     1 ar
    10     5     6 1
    11     5     4 1
    12     2     8 ar
    13     1     8 ar
    14     1    10 1
    15    13     4 1
    16     4    12 1
    17     2    16 1
    18     6    17 1
    19     6    18 1
    20     8    19 1
    21     9    20 1
@<TRIPOS>SUBSTRUCTURE
     1 GXG         1 TEMP              0 ****  ****    0 ROOT
