@<TRIPOS>MOLECULE
GXL
   24    24     1     0     0
SMALL
bcc


@<TRIPOS>ATOM
      1 C1          0.1040   -0.1960   -0.0630 c3        1 GXL      0.309900
      2 C2          1.6340   -0.1570    0.0780 c3        1 GXL      0.095100
      3 C3          2.0300   -0.0130    1.5550 c3        1 GXL      0.076100
      4 C4          1.3510   -1.1080    2.3930 c3        1 GXL      0.127100
      5 C5         -0.1640   -1.0540    2.1660 c3        1 GXL      0.106100
      6 C6         -0.8670   -2.2400    2.8350 c3        1 GXL      0.141400
      7 O1         -0.3930    1.0740    0.2970 oh        1 GXL     -0.641800
      8 O2          2.1980    0.8830   -0.6900 oh        1 GXL     -0.593800
      9 O3          3.4280   -0.1820    1.7220 oh        1 GXL     -0.606800
     10 O4          1.8190   -2.3970    2.0370 oh        1 GXL     -0.594800
     11 O5         -0.5260   -1.1310    0.7830 os        1 GXL     -0.444600
     12 O6         -2.2690   -2.1280    2.7190 oh        1 GXL     -0.598800
     13 H1         -0.2080   -0.4900   -1.1050 h2        1 GXL      0.086700
     14 HA          2.0680   -1.1080   -0.3420 h1        1 GXL      0.108700
     15 H3          1.7250    1.0020    1.9310 h1        1 GXL      0.061700
     16 H4          1.5690   -0.9250    3.4830 h1        1 GXL      0.058700
     17 H5         -0.5510   -0.0780    2.5740 h1        1 GXL      0.064700
     18 H6C1       -0.5010   -3.1990    2.3810 h1        1 GXL      0.066200
     19 H6C2       -0.6580   -2.2270    3.9360 h1        1 GXL      0.066200
     20 HB         -1.3570    1.0380    0.2410 ho        1 GXL      0.429000
     21 H2          1.7360    1.7010   -0.4560 ho        1 GXL      0.421000
     22 HC          3.8570    0.3250    1.0180 ho        1 GXL      0.426000
     23 HD          2.7850   -2.3560    2.0640 ho        1 GXL      0.424000
     24 H6         -2.4770   -2.1640    1.7760 ho        1 GXL      0.411000
@<TRIPOS>BOND
     1    1    2 1   
     2    1    7 1   
     3    1   11 1   
     4    1   13 1   
     5    2    3 1   
     6    2    8 1   
     7    2   14 1   
     8    3    4 1   
     9    3    9 1   
    10    3   15 1   
    11    4    5 1   
    12    4   10 1   
    13    4   16 1   
    14    5    6 1   
    15    5   11 1   
    16    5   17 1   
    17    6   12 1   
    18    6   18 1   
    19    6   19 1   
    20    7   20 1   
    21    8   21 1   
    22    9   22 1   
    23   10   23 1   
    24   12   24 1   
@<TRIPOS>SUBSTRUCTURE
     1 GXL         1 TEMP              0 ****  ****    0 ROOT
