@<TRIPOS>MOLECULE
molecule
   24    24     1     0     0
SMALL
bcc


@<TRIPOS>ATOM
      1 C1           0.0000     0.0000     0.0000 c3         1 GXL       0.312900
      2 C2           1.5300     0.0000     0.0000 c3         1 GXL       0.124100
      3 C3           2.0290     0.0000     1.4490 c3         1 GXL       0.134100
      4 C4           1.3770    -1.1710     2.1910 c3         1 GXL       0.100100
      5 C5          -0.1420    -1.0810     2.0250 c3         1 GXL       0.132100
      6 C6          -0.8060    -2.2270     2.7920 c3         1 GXL       0.147400
      7 O1          -0.4740     1.1540     0.6970 oh         1 GXL      -0.620800
      8 O2           2.0080     1.1670    -0.6720 oh         1 GXL      -0.595800
      9 O3           3.4500    -0.1490     1.4660 oh         1 GXL      -0.595800
     10 O4           1.8490    -2.4040     1.6460 oh         1 GXL      -0.583800
     11 O5          -0.4820    -1.1750     0.6450 os         1 GXL      -0.379600
     12 O6          -2.2240    -2.1420     2.6430 oh         1 GXL      -0.598800
     13 H1          -0.3580     0.0200    -1.0220 h2         1 GXL       0.069700
     14 HA           1.8910    -0.8880    -0.5050 h1         1 GXL       0.077700
     15 H3           1.7510     0.9310     1.9270 h1         1 GXL       0.065700
     16 H4           1.6280    -1.1150     3.2430 h1         1 GXL       0.038700
     17 H5          -0.4890    -0.1320     2.4150 h1         1 GXL       0.080700
     18 H6C1        -0.5480    -2.1550     3.8420 h1         1 GXL       0.031200
     19 H6C2        -0.4570    -3.1740     2.3990 h1         1 GXL       0.031200
     20 HB          -1.1700     1.5550     0.2040 ho         1 GXL       0.416000
     21 H2           2.3870     0.9200    -1.5000 ho         1 GXL       0.406000
     22 HC           3.8220     0.4570     2.0850 ho         1 GXL       0.403000
     23 HD           2.3780    -2.8480     2.2870 ho         1 GXL       0.402000
     24 H6          -2.6380    -2.7740     3.2070 ho         1 GXL       0.401000
@<TRIPOS>BOND
     1     1     2 1
     2     1     7 1
     3     1    11 1
     4     1    13 1
     5     2     3 1
     6     2     8 1
     7     2    14 1
     8     3     4 1
     9     3     9 1
    10     3    15 1
    11     4     5 1
    12     4    10 1
    13     4    16 1
    14     5     6 1
    15     5    11 1
    16     5    17 1
    17     6    12 1
    18     6    18 1
    19     6    19 1
    20     7    20 1
    21     8    21 1
    22     9    22 1
    23    10    23 1
    24    12    24 1
@<TRIPOS>SUBSTRUCTURE
     1 GXL         1 TEMP              0 ****  ****    0 ROOT
