@<TRIPOS>MOLECULE
molecule
   23    23     1     0     0
SMALL
bcc


@<TRIPOS>ATOM
      1 C10          0.0000     0.0000     0.0000 ca         1 GXM      -0.135200
      2 C15          0.0060     0.0020     2.3950 ca         1 GXM      -0.148000
      3 C17          2.0890     0.0000     1.2130 ca         1 GXM      -0.111000
      4 C03          2.2450     1.2300    -2.0660 ce         1 GXM      -0.349200
      5 C04          2.9250     1.2290    -3.2370 cf         1 GXM       0.155900
      6 C05          3.0320     2.4740    -4.0330 c          1 GXM       0.849800
      7 C09          1.3970     0.0000     0.0000 ca         1 GXM      -0.061600
      8 C14         -0.6850     0.0010     1.1960 ca         1 GXM      -0.079000
      9 C16          1.3900     0.0020     2.4020 ca         1 GXM      -0.101000
     10 N11         -0.7410     0.0060    -1.2810 no         1 GXM       0.290200
     11 O01          2.6630    -1.0260    -1.6770 o          1 GXM      -0.528100
     12 O06          2.5100     3.4950    -3.6340 o          1 GXM      -0.814800
     13 O07          3.7090     2.4720    -5.1970 o          1 GXM      -0.814800
     14 O08          3.5070     0.0910    -3.6800 oh         1 GXM      -0.500100
     15 O12         -1.9540     0.1190    -1.2820 o          1 GXM      -0.193000
     16 O13         -0.1400    -0.1030    -2.3340 o          1 GXM      -0.193000
     17 H1          -0.5380     0.0030     3.3310 ha         1 GXM       0.133000
     18 H2           3.1720    -0.0000     1.2200 ha         1 GXM       0.152000
     19 H3           1.7790     2.1420    -1.7110 ha         1 GXM       0.159000
     20 H4          -1.7690     0.0010     1.1980 ha         1 GXM       0.157000
     21 H5           1.9250     0.0020     3.3440 ha         1 GXM       0.131000
     22 H7           4.4270     0.2410    -3.8190 ho         1 GXM       0.429000
     23 C02          2.1390    -0.0020    -1.2780 c          1 GXM       0.573900
@<TRIPOS>BOND
     1    15    10 1
     2    16    10 1
     3    10     1 1
     4    11    23 2
     5     1     8 ar
     6     1     7 ar
     7    14     5 1
     8     8     2 ar
     9    23     7 1
    10    23     4 1
    11     7     3 ar
    12     2     9 ar
    13    12     6 1
    14     5     4 2
    15     5     6 1
    16     3     9 ar
    17     6    13 1
    18     2    17 1
    19     3    18 1
    20     4    19 1
    21     8    20 1
    22     9    21 1
    23    14    22 1
@<TRIPOS>SUBSTRUCTURE
     1 GXM         1 TEMP              0 ****  ****    0 ROOT
