@<TRIPOS>MOLECULE
GXM
   23    23     1     0     0
SMALL
bcc


@<TRIPOS>ATOM
      1 C10          0.0000     0.0000     0.0000 ca         1 GXM      -0.422200
      2 C15          0.0060     0.0020     2.3950 ca         1 GXM      -0.135000
      3 C17          2.0890     0.0000     1.2130 ca         1 GXM      -0.093000
      4 C03          2.2450     1.2300    -2.0660 ce         1 GXM      -0.373200
      5 C04          2.9250     1.2290    -3.2370 cf         1 GXM       0.188900
      6 C05          3.0320     2.4740    -4.0330 c          1 GXM       0.936800
      7 C09          1.3970     0.0000     0.0000 ca         1 GXM      -0.027600
      8 C14         -0.6850     0.0010     1.1960 ca         1 GXM      -0.023000
      9 C16          1.3900     0.0020     2.4020 ca         1 GXM      -0.058000
     10 N11         -0.7410     0.0060    -1.2810 no         1 GXM       1.039200
     11 O01          2.6630    -1.0260    -1.6770 o          1 GXM      -0.569100
     12 O06          2.5100     3.4950    -3.6340 o          1 GXM      -0.867300
     13 O07          3.7090     2.4720    -5.1970 o          1 GXM      -0.867300
     14 O08          3.5070     0.0910    -3.6800 oh         1 GXM      -0.476100
     15 O12         -1.9540     0.1190    -1.2820 o          1 GXM      -0.439000
     16 O13         -0.1400    -0.1030    -2.3340 o          1 GXM      -0.439000
     17 H1          -0.5380     0.0030     3.3310 ha         1 GXM       0.103000
     18 H2           3.1720    -0.0000     1.2200 ha         1 GXM       0.119000
     19 H3           1.8110     2.1500    -1.6930 ha         1 GXM       0.140000
     20 H4          -1.7690     0.0010     1.1980 ha         1 GXM       0.125000
     21 H5           1.9250     0.0020     3.3440 ha         1 GXM       0.098000
     22 H7           4.4270     0.2410    -3.8190 ho         1 GXM       0.409000
     23 C02          2.1390    -0.0020    -1.2780 c          1 GXM       0.629900
@<TRIPOS>BOND
     1     1     7 ar  
     2     1     8 ar  
     3     1    10 1   
     4     2     8 ar  
     5     2     9 ar  
     6     2    17 1   
     7     3     7 ar  
     8     3     9 ar  
     9     3    18 1   
    10     4     5 2   
    11     4    19 1   
    12     4    23 1   
    13     5     6 1   
    14     5    14 1   
    15     6    12 1   
    16     6    13 1   
    17     7    23 1   
    18     8    20 1   
    19     9    21 1   
    20    10    15 1   
    21    10    16 1   
    22    11    23 2   
    23    14    22 1   
@<TRIPOS>SUBSTRUCTURE
     1 GXM         1 TEMP              0 ****  ****    0 ROOT
