@<TRIPOS>MOLECULE
GXP
   15    14     1     0     0
SMALL
bcc


@<TRIPOS>ATOM
      1 O          -0.2580    0.0970    0.0340 o         1 GXP     -0.529100
      2 C           0.8290   -0.4530    0.2010 c         1 GXP      0.568900
      3 C1          1.8630   -0.0540    1.2250 c3        1 GXP      0.044100
      4 O1          1.2440    0.7780    2.1920 oh        1 GXP     -0.603800
      5 C2          2.4990   -1.2860    1.8550 c3        1 GXP     -0.234400
      6 C3          3.7340   -0.9630    2.6630 c         1 GXP      0.470100
      7 C4          4.6890   -2.1560    2.8420 c         1 GXP      0.860600
      8 O3          5.4130   -2.4390    1.8510 o         1 GXP     -0.804800
      9 O4          4.6390   -2.7750    3.9340 o         1 GXP     -0.804800
     10 H1          2.6620    0.5390    0.6860 h1        1 GXP      0.059700
     11 H2          1.1480   -1.3100   -0.4380 h4        1 GXP     -0.014800
     12 H3          1.9280    0.9760    2.8510 ho        1 GXP      0.433000
     13 H4          1.7670   -1.7890    2.5390 hc        1 GXP      0.078700
     14 O2          3.9170    0.1770    3.1090 o         1 GXP     -0.601100
     15 H8          2.7960   -2.0150    1.0560 hc        1 GXP      0.078700
@<TRIPOS>BOND
     1    1    2 2   
     2    2    3 1   
     3    2   11 1   
     4    3    4 1   
     5    3    5 1   
     6    3   10 1   
     7    4   12 1   
     8    5    6 1   
     9    5   13 1   
    10    5   15 1   
    11    6    7 1   
    12    6   14 2   
    13    7    8 1   
    14    7    9 1   
@<TRIPOS>SUBSTRUCTURE
     1 GXP         1 TEMP              0 ****  ****    0 ROOT
