@<TRIPOS>MOLECULE
molecule
   15    14     1     0     0
SMALL
bcc


@<TRIPOS>ATOM
      1 O            0.0000     0.0000     0.0000 o          1 GXP      -0.533100
      2 C            1.2080     0.0000     0.0000 c          1 GXP       0.537900
      3 C1           1.9610     0.0000     1.3050 c3         1 GXP       0.039100
      4 O1           1.0320     0.0010     2.3920 oh         1 GXP      -0.568800
      5 C2           2.8410    -1.2490     1.3870 c3         1 GXP      -0.177400
      6 C3           3.6850    -1.1880     2.6340 c          1 GXP       0.479100
      7 C4           4.6330    -2.2940     2.9460 c          1 GXP       0.808600
      8 O3           4.7270    -3.2430     2.1970 o          1 GXP      -0.812300
      9 O4           5.3880    -2.2400     4.0600 o          1 GXP      -0.812300
     10 H1           1.7490     0.0400    -0.9370 h4         1 GXP      -0.019800
     11 H2           2.5840     0.8850     1.3620 h1         1 GXP       0.055700
     12 H3           0.7540     0.8840     2.5670 ho         1 GXP       0.394000
     13 H4           3.4840    -1.2950     0.5170 hc         1 GXP       0.074700
     14 O2           3.5930    -0.2430     3.3810 o          1 GXP      -0.540100
     15 H8           2.2130    -2.1310     1.4190 hc         1 GXP       0.074700
@<TRIPOS>BOND
     1     8     7 1
     2     1     2 2
     3     2     3 1
     4     7     9 1
     5     7     6 1
     6     5     3 1
     7     5     6 1
     8     3     4 1
     9     2    10 1
    10     3    11 1
    11     4    12 1
    12     5    13 1
    13     6    14 2
    14     5    15 1
@<TRIPOS>SUBSTRUCTURE
     1 GXP         1 TEMP              0 ****  ****    0 ROOT
