@<TRIPOS>MOLECULE
molecule
   15    14     1     0     0
SMALL
bcc


@<TRIPOS>ATOM
      1 O            0.0000     0.0000     0.0000 o          1 GXS      -0.533100
      2 C            1.2080     0.0000     0.0000 c          1 GXS       0.537900
      3 C1           1.9620     0.0000     1.3040 c3         1 GXS       0.039100
      4 O1           1.0340    -0.0010     2.3910 oh         1 GXS      -0.568800
      5 C2           2.8420     1.2490     1.3850 c3         1 GXS      -0.177400
      6 C3           3.6870     1.1890     2.6310 c          1 GXS       0.479100
      7 C4           4.6370     2.2950     2.9420 c          1 GXS       0.808600
      8 O3           5.3910     2.2410     4.0550 o          1 GXS      -0.812300
      9 O4           4.7280     3.2440     2.1920 o          1 GXS      -0.812300
     10 H1           1.7500    -0.0270    -0.9380 h4         1 GXS      -0.019800
     11 H2           2.5850    -0.8840     1.3610 h1         1 GXS       0.055700
     12 H3           0.7570    -0.8850     2.5670 ho         1 GXS       0.394000
     13 H4           3.4850     1.2950     0.5140 hc         1 GXS       0.074700
     14 O2           3.5960     0.2440     3.3780 o          1 GXS      -0.540100
     15 H8           2.2140     2.1310     1.4170 hc         1 GXS       0.074700
@<TRIPOS>BOND
     1     4     3 1
     2     6     5 1
     3     6     7 1
     4     5     3 1
     5     9     7 1
     6     3     2 1
     7     7     8 1
     8     2     1 2
     9     2    10 1
    10     3    11 1
    11     4    12 1
    12     5    13 1
    13     6    14 2
    14     5    15 1
@<TRIPOS>SUBSTRUCTURE
     1 GXS         1 TEMP              0 ****  ****    0 ROOT
