@<TRIPOS>MOLECULE
GXS
   15    14     1     0     0
SMALL
bcc


@<TRIPOS>ATOM
      1 O          -0.2760   -0.0610    0.0440 o         1 GXS     -0.529100
      2 C           0.8120    0.4890    0.2120 c         1 GXS      0.568900
      3 C1          1.8600    0.0660    1.2120 c3        1 GXS      0.044100
      4 O1          1.2560   -0.7920    2.1660 oh        1 GXS     -0.603800
      5 C2          2.5000    1.2840    1.8660 c3        1 GXS     -0.234400
      6 C3          3.7460    0.9440    2.6490 c         1 GXS      0.470100
      7 C4          4.7000    2.1350    2.8460 c         1 GXS      0.860600
      8 O3          4.6630    2.7260    3.9550 o         1 GXS     -0.804800
      9 O4          5.4100    2.4470    1.8540 o         1 GXS     -0.804800
     10 H1          2.6530   -0.5100    0.6480 h1        1 GXS      0.059700
     11 H2          1.1200    1.3630   -0.4090 h4        1 GXS     -0.014800
     12 H3          1.9480   -1.0040    2.8110 ho        1 GXS      0.433000
     13 H4          1.7760    1.7680    2.5710 hc        1 GXS      0.078700
     14 O2          3.9390   -0.2060    3.0630 o         1 GXS     -0.601100
     15 H8          2.7850    2.0340    1.0810 hc        1 GXS      0.078700
@<TRIPOS>BOND
     1    1    2 2   
     2    2    3 1   
     3    2   11 1   
     4    3    4 1   
     5    3    5 1   
     6    3   10 1   
     7    4   12 1   
     8    5    6 1   
     9    5   13 1   
    10    5   15 1   
    11    6    7 1   
    12    6   14 2   
    13    7    8 1   
    14    7    9 1   
@<TRIPOS>SUBSTRUCTURE
     1 GXS         1 TEMP              0 ****  ****    0 ROOT
