@<TRIPOS>MOLECULE
molecule
    6     5     1     0     0
SMALL
bcc


@<TRIPOS>ATOM
      1 O1           0.0000     0.0000     0.0000 o          1 GXT      -0.478100
      2 C1           1.2080     0.0000     0.0000 c          1 GXT       0.456900
      3 C            1.9520     0.0000     1.2870 c          1 GXT       0.456900
      4 O            3.1600    -0.0000     1.2870 o          1 GXT      -0.478100
      5 H1           1.7500     0.0000    -0.9380 h4         1 GXT       0.021200
      6 H2           1.4100     0.0000     2.2250 h4         1 GXT       0.021200
@<TRIPOS>BOND
     1     1     2 2
     2     4     3 2
     3     2     3 1
     4     2     5 1
     5     3     6 1
@<TRIPOS>SUBSTRUCTURE
     1 GXT         1 TEMP              0 ****  ****    0 ROOT
