@<TRIPOS>MOLECULE
GXT
    6     5     1     0     0
SMALL
bcc


@<TRIPOS>ATOM
      1 O1         -0.0430   -0.0000    0.0100 o         1 GXT     -0.479100
      2 C1          1.1860   -0.0000    0.0000 c         1 GXT      0.451900
      3 C           1.9740   -0.0000    1.2870 c         1 GXT      0.451900
      4 O           3.2030   -0.0000    1.2770 o         1 GXT     -0.479100
      5 H1          1.7860    0.0000   -0.9360 h4        1 GXT      0.027200
      6 H2          1.3740    0.0000    2.2230 h4        1 GXT      0.027200
@<TRIPOS>BOND
     1    1    2 2   
     2    2    3 1   
     3    2    5 1   
     4    3    4 2   
     5    3    6 1   
@<TRIPOS>SUBSTRUCTURE
     1 GXT         1 TEMP              0 ****  ****    0 ROOT
