@<TRIPOS>MOLECULE
molecule
   12    11     1     0     0
SMALL
bcc


@<TRIPOS>ATOM
      1 O2           0.0000     0.0000     0.0000 oh         1 GXV      -0.601800
      2 C            1.4290     0.0000     0.0000 c3         1 GXV       0.144400
      3 C1           1.9390     0.0000     1.4430 c3         1 GXV       0.034100
      4 O1           1.5590     1.2200     2.0820 oh         1 GXV      -0.570800
      5 C2           3.4400    -0.1230     1.4450 c          1 GXV       0.539900
      6 O            4.1170     0.7440     1.9430 o          1 GXV      -0.485100
      7 H1          -0.3140    -0.0660    -0.8860 ho         1 GXV       0.407000
      8 H2           1.7900     0.8850    -0.5110 h1         1 GXV       0.033200
      9 H3           1.7900    -0.8850    -0.5110 h1         1 GXV       0.033200
     10 H4           1.5070    -0.8370     1.9780 h1         1 GXV       0.060700
     11 H5           1.2380     1.0340     2.9480 ho         1 GXV       0.409000
     12 H6           3.9120    -1.0030     1.0230 h4         1 GXV      -0.003800
@<TRIPOS>BOND
     1     6     5 2
     2     5     3 1
     3     4     3 1
     4     3     2 1
     5     1     2 1
     6     1     7 1
     7     2     8 1
     8     2     9 1
     9     3    10 1
    10     4    11 1
    11     5    12 1
@<TRIPOS>SUBSTRUCTURE
     1 GXV         1 TEMP              0 ****  ****    0 ROOT
