@<TRIPOS>MOLECULE
GXV
   12    11     1     0     0
SMALL
bcc


@<TRIPOS>ATOM
      1 O2          0.1750   -0.1410   -0.4100 oh        1 GXV     -0.589800
      2 C           1.5500   -0.0150   -0.1280 c3        1 GXV      0.114400
      3 C1          1.8160   -0.1920    1.3740 c3        1 GXV     -0.022900
      4 O1          1.1210    0.8080    2.0960 oh        1 GXV     -0.591800
      5 C2          3.3020   -0.1880    1.6410 c         1 GXV      0.539900
      6 O           3.8560    0.7520    2.2100 o         1 GXV     -0.513100
      7 H1         -0.2950    0.4490    0.1970 ho        1 GXV      0.418000
      8 H2          2.0480   -0.8280   -0.7190 h1        1 GXV      0.052200
      9 H3          1.9230    0.9900   -0.4640 h1        1 GXV      0.052200
     10 H4          1.3640   -1.1630    1.7280 h1        1 GXV      0.105700
     11 H5          1.6900    1.5900    2.1420 ho        1 GXV      0.421000
     12 H6          3.8540   -1.0840    1.2870 h4        1 GXV      0.014200
@<TRIPOS>BOND
     1    1    2 1   
     2    1    7 1   
     3    2    3 1   
     4    2    8 1   
     5    2    9 1   
     6    3    4 1   
     7    3    5 1   
     8    3   10 1   
     9    4   11 1   
    10    5    6 2   
    11    5   12 1   
@<TRIPOS>SUBSTRUCTURE
     1 GXV         1 TEMP              0 ****  ****    0 ROOT
