@<TRIPOS>MOLECULE
molecule
   22    22     1     0     0
SMALL
bcc


@<TRIPOS>ATOM
      1 CAA          0.0000     0.0000     0.0000 c3         1 GXY       0.124700
      2 CAC          2.0470     0.0000     1.2120 ca         1 GXY       0.091100
      3 CAD          1.2940    -0.0000     2.3740 ca         1 GXY      -0.162000
      4 CAE          1.9220    -0.0060     3.6060 ca         1 GXY      -0.020900
      5 CAF          3.3080    -0.0110     3.6820 ca         1 GXY       0.132100
      6 CAG          4.0650    -0.0100     2.5220 ca         1 GXY      -0.203000
      7 CAH          3.4380    -0.0050     1.2850 ca         1 GXY       0.186600
      8 CAK          5.3510    -0.0220     4.8990 c3         1 GXY       0.127700
      9 NAI          4.2010    -0.0050     0.1110 nv         1 GXY      -0.978200
     10 OAB          1.4280     0.0000     0.0000 os         1 GXY      -0.315900
     11 OAJ          3.9210    -0.0170     4.8960 os         1 GXY      -0.315900
     12 Br           0.8900    -0.0070     5.1910 br         1 GXY      -0.081100
     13 HAC         -0.3610     0.8850     0.5100 h1         1 GXY       0.041367
     14 HAA         -0.3610    -0.0010    -1.0210 h1         1 GXY       0.041367
     15 HAB         -0.3610    -0.8840     0.5110 h1         1 GXY       0.041367
     16 HAD          0.2120     0.0040     2.3170 ha         1 GXY       0.152000
     17 HAG          5.1470    -0.0140     2.5820 ha         1 GXY       0.150000
     18 HAM          5.7100    -0.9060     4.3860 h1         1 GXY       0.042700
     19 HAK          5.7100    -0.0270     5.9210 h1         1 GXY       0.042700
     20 HAL          5.7160     0.8630     4.3920 h1         1 GXY       0.042700
     21 HAI          4.4850    -0.8720    -0.3010 hn         1 GXY       0.431800
     22 HAN          4.4890     0.8620    -0.2980 hn         1 GXY       0.431800
@<TRIPOS>BOND
     1     1    10 1
     2     9     7 1
     3    10     2 1
     4     7     2 ar
     5     7     6 ar
     6     2     3 ar
     7     6     5 ar
     8     3     4 ar
     9     5     4 ar
    10     5    11 1
    11     4    12 1
    12     8    11 1
    13     1    13 1
    14     1    14 1
    15     1    15 1
    16     3    16 1
    17     6    17 1
    18     8    18 1
    19     8    19 1
    20     8    20 1
    21     9    21 1
    22     9    22 1
@<TRIPOS>SUBSTRUCTURE
     1 GXY         1 TEMP              0 ****  ****    0 ROOT
