@<TRIPOS>MOLECULE
GY3
   45    47     1     0     0
SMALL
bcc


@<TRIPOS>ATOM
      1 O1           0.0000     0.0000     0.0000 os         1 GY3      -0.413600
      2 C2           1.4110     0.0000     0.0000 c3         1 GY3       0.171400
      3 C3           1.9670     0.0000     1.4280 c3         1 GY3       0.031500
      4 N4           1.9180    -1.3890     1.9280 n          1 GY3      -0.138400
      5 C5           2.9660    -2.1670     2.2340 c          1 GY3       0.654500
      6 C6           2.3990    -3.4920     2.7010 c3         1 GY3      -0.182400
      7 C7           0.8990    -3.3050     2.5990 c          1 GY3       0.654500
      8 N8           0.6980    -2.0600     2.1440 n          1 GY3      -0.138400
      9 C9          -0.6050    -1.4160     1.8810 c3         1 GY3       0.031500
     10 C10         -0.7040    -1.1650     0.3740 c3         1 GY3       0.171400
     11 O11          4.1390    -1.8690     2.1530 o          1 GY3      -0.630000
     12 O12          0.0460    -4.1230     2.8750 o          1 GY3      -0.630000
     13 C19          2.8540    -4.6090     1.7980 ca         1 GY3      -0.053300
     14 C20          3.6100    -5.6460     2.3080 ca         1 GY3      -0.055300
     15 C21          4.0290    -6.6710     1.4810 ca         1 GY3      -0.095000
     16 C22          3.6940    -6.6660     0.1380 ca         1 GY3      -0.078300
     17 C23          2.9400    -5.6360    -0.3850 ca         1 GY3      -0.100000
     18 C24          2.5090    -4.6010     0.4460 ca         1 GY3      -0.033800
     19 C25          1.7000    -3.4930    -0.1060 ce         1 GY3      -0.164200
     20 C26          1.1170    -3.6250    -1.2900 c2         1 GY3      -0.149000
     21 C27          4.1550    -7.7880    -0.7570 c3         1 GY3       0.063200
     22 C28          3.9790    -5.6590     3.7680 c3         1 GY3       0.017900
     23 C29          2.8410    -6.2840     4.5760 c3         1 GY3      -0.002100
     24 H2           1.7420    -0.9110    -0.4850 h1         1 GY3       0.034200
     25 H2A          1.7420     0.9110    -0.4840 h1         1 GY3       0.034200
     26 H3           3.0030     0.3160     1.3920 h1         1 GY3       0.049950
     27 H3A          1.3220     0.6110     2.0470 h1         1 GY3       0.049950
     28 H6           2.6860    -3.6840     3.7270 hc         1 GY3       0.094700
     29 H9          -0.6620    -0.4740     2.4140 h1         1 GY3       0.049950
     30 H9A         -1.4070    -2.0720     2.1960 h1         1 GY3       0.049950
     31 H10         -0.2460    -2.0050    -0.1330 h1         1 GY3       0.034200
     32 H10A        -1.7490    -1.0120     0.1320 h1         1 GY3       0.034200
     33 H21          4.6210    -7.4830     1.8860 ha         1 GY3       0.111000
     34 H23          2.6770    -5.6340    -1.4350 ha         1 GY3       0.115000
     35 H25          1.5830    -2.5750     0.4560 ha         1 GY3       0.136000
     36 H26          1.2340    -4.5430    -1.8520 ha         1 GY3       0.091500
     37 H26A         0.5240    -2.8140    -1.6950 ha         1 GY3       0.091500
     38 H27          4.4120    -7.3900    -1.7310 hc         1 GY3       0.008033
     39 H27A         3.3600    -8.5160    -0.8620 hc         1 GY3       0.008033
     40 H27B         5.0250    -8.2640    -0.3200 hc         1 GY3       0.008033
     41 H28          4.1470    -4.6430     4.1070 hc         1 GY3       0.022700
     42 H28A         4.8820    -6.2400     3.9070 hc         1 GY3       0.022700
     43 H29          2.5090    -5.5850     5.3350 hc         1 GY3       0.008700
     44 H29A         2.0150    -6.5190     3.9160 hc         1 GY3       0.008700
     45 H29B         3.1920    -7.1920     5.0510 hc         1 GY3       0.008700
@<TRIPOS>BOND
     1     1     2 1   
     2     1    10 1   
     3     2     3 1   
     4     2    24 1   
     5     2    25 1   
     6     3     4 1   
     7     3    26 1   
     8     3    27 1   
     9     4     5 1   
    10     4     8 1   
    11     5     6 1   
    12     5    11 2   
    13     6     7 1   
    14     6    13 1   
    15     6    28 1   
    16     7     8 1   
    17     7    12 2   
    18     8     9 1   
    19     9    10 1   
    20     9    29 1   
    21     9    30 1   
    22    10    31 1   
    23    10    32 1   
    24    13    14 ar  
    25    13    18 ar  
    26    14    15 ar  
    27    14    22 1   
    28    15    16 ar  
    29    15    33 1   
    30    16    17 ar  
    31    16    21 1   
    32    17    18 ar  
    33    17    34 1   
    34    18    19 1   
    35    19    20 2   
    36    19    35 1   
    37    20    36 1   
    38    20    37 1   
    39    21    38 1   
    40    21    39 1   
    41    21    40 1   
    42    22    23 1   
    43    22    41 1   
    44    22    42 1   
    45    23    43 1   
    46    23    44 1   
    47    23    45 1   
@<TRIPOS>SUBSTRUCTURE
     1 GY3         1 TEMP              0 ****  ****    0 ROOT
