@<TRIPOS>MOLECULE
GY4
   41    43     1     0     0
SMALL
bcc


@<TRIPOS>ATOM
      1 C1           0.0000     0.0000     0.0000 c          1 GY4       0.545700
      2 C10          4.4140    -1.4830     5.6930 ca         1 GY4      -0.064000
      3 C11          5.3410    -2.5030     5.8010 ca         1 GY4      -0.107000
      4 C12          5.0560    -3.6180     6.5670 ca         1 GY4      -0.030600
      5 C13          3.8430    -3.7120     7.2260 ca         1 GY4      -0.107000
      6 C14          2.9170    -2.6930     7.1180 ca         1 GY4      -0.064000
      7 C15         -0.0030     1.3810     5.4990 c3         1 GY4       0.048000
      8 C16         -1.4970     1.6630     5.2020 c3         1 GY4      -0.034400
      9 C17         -1.6110     1.2090     3.7230 c3         1 GY4      -0.043400
     10 C2           1.4690     0.0000     0.0000 cc         1 GY4      -0.030100
     11 C3           2.1130     0.0000     1.2280 cd         1 GY4       0.061400
     12 C4           3.5910     0.0000     1.2940 c          1 GY4       0.980800
     13 C5           0.0830    -0.0000     2.3440 cc         1 GY4       0.160900
     14 C6          -0.6550    -0.0010     3.6580 c3         1 GY4       0.025400
     15 C8           2.1950    -0.4630     6.2390 c3         1 GY4      -0.034100
     16 C9           3.2050    -1.5750     6.3560 ca         1 GY4      -0.067300
     17 N1           1.3840    -0.0010     2.3590 nd         1 GY4      -0.405300
     18 N2           0.2990     0.1360     4.7680 n          1 GY4      -0.152800
     19 N3          -0.6330     0.0000     1.1940 ns         1 GY4       0.026600
     20 O1          -0.6280     0.0050    -1.0440 o          1 GY4      -0.735500
     21 O2           2.1700    -0.0000    -1.1600 oh         1 GY4      -0.410100
     22 O3           4.2450     0.0010     0.2710 o          1 GY4      -0.864800
     23 O4           4.2110    -0.0010     2.4900 o          1 GY4      -0.864800
     24 O5           1.4430    -1.7270     4.3930 o          1 GY4      -0.598100
     25 H2           6.2900    -2.4300     5.2830 ha         1 GY4       0.109500
     26 H3           3.6180    -4.5860     7.8250 ha         1 GY4       0.109500
     27 H4           1.9680    -2.7650     7.6360 ha         1 GY4       0.126000
     28 H5           0.6130     2.1920     5.1300 h1         1 GY4       0.018200
     29 H6           0.1470     1.2380     6.5620 h1         1 GY4       0.018200
     30 H7          -2.1360     1.0650     5.8390 hc         1 GY4       0.017200
     31 H8          -1.7170     2.7190     5.2990 hc         1 GY4       0.017200
     32 H9          -2.6260     0.9060     3.4940 hc         1 GY4       0.024700
     33 H10         -1.2790     1.9950     3.0550 hc         1 GY4       0.024700
     34 H11         -1.2180    -0.9200     3.7700 h1         1 GY4       0.030700
     35 H12          1.6070    -0.4110     7.1470 hc         1 GY4       0.027200
     36 H13          2.7100     0.4780     6.0880 hc         1 GY4       0.027200
     37 H14         -1.6330     0.0000     1.2290 hn         1 GY4       0.157500
     38 H15          1.9420    -0.7630    -1.6660 ho         1 GY4       0.383000
     39 C7           1.2860    -0.7310     5.0670 c          1 GY4       0.622100
     40 Cl1          6.2190    -4.9000     6.7020 cl         1 GY4      -0.073400
     41 H1           4.6380    -0.6080     5.0950 ha         1 GY4       0.126000
@<TRIPOS>BOND
     1     1    10 1   
     2     1    19 1   
     3     1    20 2   
     4     2     3 ar  
     5     2    16 ar  
     6     2    41 1   
     7     3     4 ar  
     8     3    25 1   
     9     4     5 ar  
    10     4    40 1   
    11     5     6 ar  
    12     5    26 1   
    13     6    16 ar  
    14     6    27 1   
    15     7     8 1   
    16     7    18 1   
    17     7    28 1   
    18     7    29 1   
    19     8     9 1   
    20     8    30 1   
    21     8    31 1   
    22     9    14 1   
    23     9    32 1   
    24     9    33 1   
    25    10    11 2   
    26    10    21 1   
    27    11    12 1   
    28    11    17 1   
    29    12    22 1   
    30    12    23 1   
    31    13    14 1   
    32    13    17 2   
    33    13    19 1   
    34    14    18 1   
    35    14    34 1   
    36    15    16 1   
    37    15    35 1   
    38    15    36 1   
    39    15    39 1   
    40    18    39 1   
    41    19    37 1   
    42    21    38 1   
    43    24    39 2   
@<TRIPOS>SUBSTRUCTURE
     1 GY4         1 TEMP              0 ****  ****    0 ROOT
