@<TRIPOS>MOLECULE
molecule
   54    56     1     0     0
SMALL
bcc


@<TRIPOS>ATOM
      1 N            0.0000     0.0000     0.0000 n          1 GY5      -0.509800
      2 C           -6.3600    -0.0410    -1.1940 ca         1 GY5      -0.090500
      3 O           -0.2880     0.1420    -2.1950 o          1 GY5      -0.544100
      4 C01          1.9820    -1.2340    -0.6970 cc         1 GY5       0.464900
      5 C02          3.1620    -2.1460    -2.4690 cd         1 GY5       0.088400
      6 C03          2.9330    -3.4290    -1.9960 cc         1 GY5       0.013900
      7 C04          2.1640    -3.5710    -0.7540 c          1 GY5       0.652700
      8 C05          3.9400    -1.9370    -3.7110 c          1 GY5       0.685300
      9 C06          5.1130    -0.4830    -5.2760 c3         1 GY5       0.118000
     10 C07          0.6950     0.5700     2.2220 c3         1 GY5      -0.095400
     11 C08          1.9280     0.0000     1.4740 c3         1 GY5      -0.096400
     12 C09          1.4700     0.0000     0.0000 c3         1 GY5       0.087400
     13 C1           5.4080     1.0100    -5.4360 c3         1 GY5       0.117400
     14 C10         -0.4730    -0.0260     1.3970 c3         1 GY5       0.086000
     15 C11         -0.7850     0.0260    -1.0950 c          1 GY5       0.672100
     16 C12         -2.2810    -0.0880    -0.9520 c3         1 GY5       0.072400
     17 C13         -7.0020    -0.2090    -2.4060 ca         1 GY5      -0.164000
     18 C14         -6.2650    -0.3590    -3.5670 ca         1 GY5      -0.090500
     19 C15         -4.8850    -0.3410    -3.5160 ca         1 GY5      -0.187000
     20 C16         -4.2380    -0.1730    -2.3000 ca         1 GY5       0.139100
     21 C17         -4.9800    -0.0230    -1.1380 ca         1 GY5      -0.187000
     22 N01          2.6710    -1.0940    -1.7900 nd         1 GY5      -0.617300
     23 N02          1.7120    -2.4470    -0.1550 ns         1 GY5      -0.441400
     24 N03          4.2500    -0.6870    -4.1090 ns         1 GY5      -0.564900
     25 O01          3.4120    -4.5140    -2.6520 oh         1 GY5      -0.441100
     26 O02          1.9270    -4.6710    -0.2830 o          1 GY5      -0.626500
     27 O03          4.2990    -2.8920    -4.3720 o          1 GY5      -0.584100
     28 O1          -2.8800    -0.1550    -2.2480 os         1 GY5      -0.295900
     29 O11          6.1570     1.4710    -4.3110 os         1 GY5      -0.429600
     30 C18          6.3910     2.8810    -4.3060 c3         1 GY5       0.128700
     31 H10          6.0420    -1.0220    -5.1360 h1         1 GY5       0.062700
     32 H03          4.6120    -0.8500    -6.1640 h1         1 GY5       0.062700
     33 H05          0.6840     1.6530     2.1780 hc         1 GY5       0.065700
     34 H11          0.6650     0.2150     3.2440 hc         1 GY5       0.065700
     35 H07          2.7870     0.6470     1.6060 hc         1 GY5       0.065700
     36 H06          2.1430    -1.0080     1.8070 hc         1 GY5       0.065700
     37 H08          1.8370     0.8900    -0.4980 h1         1 GY5       0.105700
     38 H13          4.4750     1.5580    -5.4980 h1         1 GY5       0.032700
     39 H12          5.9810     1.1690    -6.3410 h1         1 GY5       0.032700
     40 H1          -0.6710    -1.0440     1.7080 h1         1 GY5       0.049700
     41 H09         -1.3600     0.5870     1.5040 h1         1 GY5       0.049700
     42 H2          -2.5230    -0.9860    -0.3950 h1         1 GY5       0.054700
     43 H3          -2.6600     0.7780    -0.4230 h1         1 GY5       0.054700
     44 H120        -8.0850    -0.2230    -2.4480 ha         1 GY5       0.132000
     45 H130        -6.7700    -0.4900    -4.5160 ha         1 GY5       0.133000
     46 H14         -4.3080    -0.4590    -4.4250 ha         1 GY5       0.138000
     47 H15         -4.4780     0.1090    -0.1870 ha         1 GY5       0.138000
     48 H01          1.1840    -2.5090     0.6930 hn         1 GY5       0.338500
     49 H04          3.8570     0.1010    -3.6340 hn         1 GY5       0.337500
     50 H02          3.9910    -4.9950    -2.0840 ho         1 GY5       0.429000
     51 H112         6.9130     3.1630    -5.2120 h1         1 GY5       0.030700
     52 H111         6.9930     3.1440    -3.4450 h1         1 GY5       0.030700
     53 H113         5.4430     3.4040    -4.2580 h1         1 GY5       0.030700
     54 H           -6.9400     0.0760    -0.2860 ha         1 GY5       0.133000
@<TRIPOS>BOND
     1    26     7 2
     2     2    21 ar
     3     2    17 ar
     4    21    20 ar
     5    25     6 1
     6     7     6 1
     7     7    23 1
     8    17    18 ar
     9     6     5 2
    10    20    28 1
    11    20    19 ar
    12    28    16 1
    13    23     4 1
    14    18    19 ar
    15    16    15 1
    16     5    22 1
    17     5     8 1
    18     4    22 2
    19     4    12 1
    20    27     8 2
    21     8    24 1
    22    12     1 1
    23    12    11 1
    24    15     1 1
    25    15     3 2
    26     1    14 1
    27    11    10 1
    28    24     9 1
    29     9    13 1
    30    30    29 1
    31    14    10 1
    32    13    29 1
    33     2    54 1
    34     9    31 1
    35     9    32 1
    36    10    33 1
    37    10    34 1
    38    11    35 1
    39    11    36 1
    40    12    37 1
    41    13    38 1
    42    13    39 1
    43    14    40 1
    44    14    41 1
    45    16    42 1
    46    16    43 1
    47    17    44 1
    48    18    45 1
    49    19    46 1
    50    21    47 1
    51    23    48 1
    52    24    49 1
    53    25    50 1
    54    30    51 1
    55    30    52 1
    56    30    53 1
@<TRIPOS>SUBSTRUCTURE
     1 GY5         1 TEMP              0 ****  ****    0 ROOT
