@<TRIPOS>MOLECULE
GY5
   54    56     1     0     0
SMALL
bcc


@<TRIPOS>ATOM
      1 N            0.0000     0.0000     0.0000 n          1 GY5      -0.186800
      2 C           -6.3600    -0.0410    -1.1940 ca         1 GY5      -0.057000
      3 O           -0.2880     0.1420    -2.1950 o          1 GY5      -0.591100
      4 C01          1.9820    -1.2340    -0.6970 cc         1 GY5       0.231900
      5 C02          3.1620    -2.1460    -2.4690 cd         1 GY5       0.007400
      6 C03          2.9330    -3.4290    -1.9960 cc         1 GY5       0.048900
      7 C04          2.1640    -3.5710    -0.7540 c          1 GY5       0.547700
      8 C05          3.9400    -1.9370    -3.7110 c          1 GY5       0.597300
      9 C06          5.1130    -0.4830    -5.2760 c3         1 GY5       0.046000
     10 C07          0.6950     0.5700     2.2220 c3         1 GY5      -0.029400
     11 C08          1.9280     0.0000     1.4740 c3         1 GY5      -0.038400
     12 C09          1.4700     0.0000     0.0000 c3         1 GY5       0.011400
     13 C1           5.4080     1.0100    -5.4360 c3         1 GY5       0.196400
     14 C10         -0.4730    -0.0260     1.3970 c3         1 GY5       0.044000
     15 C11         -0.7850     0.0260    -1.0950 c          1 GY5       0.592100
     16 C12         -2.2810    -0.0880    -0.9520 c3         1 GY5       0.135400
     17 C13         -7.0020    -0.2090    -2.4060 ca         1 GY5      -0.142000
     18 C14         -6.2650    -0.3590    -3.5670 ca         1 GY5      -0.057000
     19 C15         -4.8850    -0.3410    -3.5160 ca         1 GY5      -0.175000
     20 C16         -4.2380    -0.1730    -2.3000 ca         1 GY5       0.144100
     21 C17         -4.9800    -0.0230    -1.1380 ca         1 GY5      -0.175000
     22 N01          2.6710    -1.0940    -1.7900 nd         1 GY5      -0.478300
     23 N02          1.7120    -2.4470    -0.1550 ns         1 GY5       0.034600
     24 N03          4.2500    -0.6870    -4.1090 ns         1 GY5      -0.174900
     25 O01          3.4120    -4.5140    -2.6520 oh         1 GY5      -0.415100
     26 O02          1.9270    -4.6710    -0.2830 o          1 GY5      -0.671500
     27 O03          4.2990    -2.8920    -4.3720 o          1 GY5      -0.633100
     28 O1          -2.8800    -0.1550    -2.2480 os         1 GY5      -0.267900
     29 O11          6.1570     1.4710    -4.3110 os         1 GY5      -0.419600
     30 C18          6.3910     2.8810    -4.3060 c3         1 GY5       0.255700
     31 H10          6.0420    -1.0220    -5.1360 h1         1 GY5       0.032200
     32 H03          4.6120    -0.8500    -6.1640 h1         1 GY5       0.032200
     33 H05          0.6840     1.6530     2.1780 hc         1 GY5       0.032200
     34 H11          0.6650     0.2150     3.2440 hc         1 GY5       0.032200
     35 H07          2.7870     0.6470     1.6060 hc         1 GY5       0.031200
     36 H06          2.1430    -1.0080     1.8070 hc         1 GY5       0.031200
     37 H08          1.8370     0.8900    -0.4980 h1         1 GY5       0.068700
     38 H13          4.4750     1.5580    -5.4980 h1         1 GY5      -0.001800
     39 H12          5.9810     1.1690    -6.3410 h1         1 GY5      -0.001800
     40 H1          -0.6710    -1.0440     1.7080 h1         1 GY5       0.019700
     41 H09         -1.3600     0.5870     1.5040 h1         1 GY5       0.019700
     42 H2          -2.5230    -0.9860    -0.3950 h1         1 GY5       0.016700
     43 H3          -2.6600     0.7780    -0.4230 h1         1 GY5       0.016700
     44 H120        -8.0850    -0.2230    -2.4480 ha         1 GY5       0.106000
     45 H130        -6.7700    -0.4900    -4.5160 ha         1 GY5       0.101500
     46 H14         -4.3080    -0.4590    -4.4250 ha         1 GY5       0.116500
     47 H15         -4.4780     0.1090    -0.1870 ha         1 GY5       0.116500
     48 H01          1.1840    -2.5090     0.6930 hn         1 GY5       0.182500
     49 H04          3.8570     0.1010    -3.6340 hn         1 GY5       0.196500
     50 H02          3.9910    -4.9950    -2.0840 ho         1 GY5       0.408000
     51 H112         6.9130     3.1630    -5.2120 h1         1 GY5      -0.012633
     52 H111         6.9930     3.1440    -3.4450 h1         1 GY5      -0.012633
     53 H113         5.4430     3.4040    -4.2580 h1         1 GY5      -0.012633
     54 H           -6.9400     0.0760    -0.2860 ha         1 GY5       0.101500
@<TRIPOS>BOND
     1     1    12 1   
     2     1    14 1   
     3     1    15 1   
     4     2    17 ar  
     5     2    21 ar  
     6     2    54 1   
     7     3    15 2   
     8     4    12 1   
     9     4    22 2   
    10     4    23 1   
    11     5     6 2   
    12     5     8 1   
    13     5    22 1   
    14     6     7 1   
    15     6    25 1   
    16     7    23 1   
    17     7    26 2   
    18     8    24 1   
    19     8    27 2   
    20     9    13 1   
    21     9    24 1   
    22     9    31 1   
    23     9    32 1   
    24    10    11 1   
    25    10    14 1   
    26    10    33 1   
    27    10    34 1   
    28    11    12 1   
    29    11    35 1   
    30    11    36 1   
    31    12    37 1   
    32    13    29 1   
    33    13    38 1   
    34    13    39 1   
    35    14    40 1   
    36    14    41 1   
    37    15    16 1   
    38    16    28 1   
    39    16    42 1   
    40    16    43 1   
    41    17    18 ar  
    42    17    44 1   
    43    18    19 ar  
    44    18    45 1   
    45    19    20 ar  
    46    19    46 1   
    47    20    21 ar  
    48    20    28 1   
    49    21    47 1   
    50    23    48 1   
    51    24    49 1   
    52    25    50 1   
    53    29    30 1   
    54    30    51 1   
    55    30    52 1   
    56    30    53 1   
@<TRIPOS>SUBSTRUCTURE
     1 GY5         1 TEMP              0 ****  ****    0 ROOT
