@<TRIPOS>MOLECULE
GY6
   56    59     1     0     0
SMALL
bcc


@<TRIPOS>ATOM
      1 C01          0.0000     0.0000     0.0000 cc         1 GY6       0.238900
      2 C03          2.0170     0.0000     1.1380 cd         1 GY6       0.007400
      3 C04          1.3600     0.0020     2.3580 cc         1 GY6       0.047900
      4 C07         -0.1080     0.0130     2.3420 c          1 GY6       0.547700
      5 C11          3.4970    -0.0000     1.0870 c          1 GY6       0.597300
      6 C14          5.5900    -0.0070    -0.1580 c3         1 GY6       0.048000
      7 C17          6.0630     0.2690    -1.5870 c3         1 GY6       0.018900
      8 C21         -2.9310     0.5980    -2.1170 c3         1 GY6      -0.030400
      9 C24         -1.7000     1.1940    -1.3860 c3         1 GY6      -0.038400
     10 C27         -0.7230     0.0000    -1.3220 c3         1 GY6       0.009400
     11 C30         -2.9460    -0.8520    -1.5700 c3         1 GY6       0.039000
     12 C35         -3.6510    -5.7580    -2.1810 ca         1 GY6      -0.065000
     13 C37         -3.5110    -5.2570    -0.9000 ca         1 GY6      -0.101000
     14 C39         -2.6650    -4.1920    -0.6590 ca         1 GY6      -0.004600
     15 C41         -1.9480    -3.6220    -1.7140 ca         1 GY6      -0.138600
     16 C42         -2.0950    -4.1340    -3.0060 ca         1 GY6      -0.004600
     17 C44         -2.9410    -5.2010    -3.2300 ca         1 GY6      -0.101000
     18 C46         10.3340     0.2870    -1.6960 ca         1 GY6      -0.102000
     19 C48          9.6420    -0.8910    -1.9050 ca         1 GY6      -0.098000
     20 C50          8.2600    -0.8980    -1.8700 ca         1 GY6      -0.095000
     21 C52          7.5700     0.2760    -1.6260 ca         1 GY6      -0.090300
     22 C53          8.2610     1.4540    -1.4170 ca         1 GY6      -0.095000
     23 C55          9.6440     1.4580    -1.4460 ca         1 GY6      -0.098000
     24 N02          1.3010     0.0000     0.0000 nd         1 GY6      -0.486300
     25 N09         -0.7290     0.0070     1.1420 ns         1 GY6       0.038600
     26 N13          4.1310     0.1040    -0.0970 ns         1 GY6      -0.182900
     27 N29         -1.5250    -1.2250    -1.4530 n          1 GY6      -0.169800
     28 O05          2.0490     0.0030     3.5260 oh         1 GY6      -0.414100
     29 O08         -0.7480     0.0150     3.3800 o          1 GY6      -0.671500
     30 O12          4.1390    -0.0950     2.1150 o          1 GY6      -0.628100
     31 O34          0.1430    -2.6810    -1.2720 o          1 GY6      -0.597100
     32 Cl          -1.2100    -3.4330    -4.3250 cl         1 GY6       0.000600
     33 H15          5.8890    -1.0060     0.1350 h1         1 GY6       0.029700
     34 H16          6.0360     0.7150     0.5150 h1         1 GY6       0.029700
     35 H18          5.6880    -0.5050    -2.2470 hc         1 GY6       0.020200
     36 H19          5.6890     1.2320    -1.9120 hc         1 GY6       0.020200
     37 H23         -3.8360     1.1240    -1.8400 hc         1 GY6       0.031700
     38 H22         -2.7830     0.6040    -3.1900 hc         1 GY6       0.031700
     39 H26         -1.2720     2.0070    -1.9610 hc         1 GY6       0.030200
     40 H25         -1.9690     1.5210    -0.3890 hc         1 GY6       0.030200
     41 H28         -0.0130     0.0630    -2.1370 h1         1 GY6       0.066700
     42 H31         -3.4520    -1.5100    -2.2660 h1         1 GY6       0.025700
     43 H32         -3.4240    -0.8810    -0.5980 h1         1 GY6       0.025700
     44 H36         -4.3160    -6.5940    -2.3630 ha         1 GY6       0.111000
     45 H38         -4.0690    -5.6990    -0.0830 ha         1 GY6       0.121000
     46 H45         -3.0560    -5.5990    -4.2320 ha         1 GY6       0.121000
     47 H47         11.4170     0.2910    -1.7210 ha         1 GY6       0.102000
     48 H49         10.1820    -1.8100    -2.0990 ha         1 GY6       0.102000
     49 H51          7.7180    -1.8210    -2.0340 ha         1 GY6       0.106000
     50 H54          7.7200     2.3720    -1.2200 ha         1 GY6       0.106000
     51 H56         10.1860     2.3820    -1.2820 ha         1 GY6       0.102000
     52 H10         -1.7290     0.0140     1.0970 hn         1 GY6       0.183500
     53 H20          3.6070     0.2720    -0.9320 hn         1 GY6       0.189500
     54 H06          1.8260     0.7730     4.0220 ho         1 GY6       0.407000
     55 C33         -1.0410    -2.4840    -1.4660 c          1 GY6       0.623700
     56 Cl2         -2.4910    -3.5650     0.9510 cl         1 GY6       0.000600
@<TRIPOS>BOND
     1     1    10 1   
     2     1    24 2   
     3     1    25 1   
     4     2     3 2   
     5     2     5 1   
     6     2    24 1   
     7     3     4 1   
     8     3    28 1   
     9     4    25 1   
    10     4    29 2   
    11     5    26 1   
    12     5    30 2   
    13     6     7 1   
    14     6    26 1   
    15     6    33 1   
    16     6    34 1   
    17     7    21 1   
    18     7    35 1   
    19     7    36 1   
    20     8     9 1   
    21     8    11 1   
    22     8    37 1   
    23     8    38 1   
    24     9    10 1   
    25     9    39 1   
    26     9    40 1   
    27    10    27 1   
    28    10    41 1   
    29    11    27 1   
    30    11    42 1   
    31    11    43 1   
    32    12    13 ar  
    33    12    17 ar  
    34    12    44 1   
    35    13    14 ar  
    36    13    45 1   
    37    14    15 ar  
    38    14    56 1   
    39    15    16 ar  
    40    15    55 1   
    41    16    17 ar  
    42    16    32 1   
    43    17    46 1   
    44    18    19 ar  
    45    18    23 ar  
    46    18    47 1   
    47    19    20 ar  
    48    19    48 1   
    49    20    21 ar  
    50    20    49 1   
    51    21    22 ar  
    52    22    23 ar  
    53    22    50 1   
    54    23    51 1   
    55    25    52 1   
    56    26    53 1   
    57    27    55 1   
    58    28    54 1   
    59    31    55 2   
@<TRIPOS>SUBSTRUCTURE
     1 GY6         1 TEMP              0 ****  ****    0 ROOT
