@<TRIPOS>MOLECULE
molecule
   56    59     1     0     0
SMALL
bcc


@<TRIPOS>ATOM
      1 C1           0.0000     0.0000     0.0000 ca         1 GY7       0.189900
      2 C10          6.7490     5.4340    -6.4970 ca         1 GY7      -0.084300
      3 C11          6.3370     6.6800    -6.0620 ca         1 GY7      -0.121500
      4 C12          6.8690     7.8220    -6.6320 ca         1 GY7      -0.126000
      5 C13          7.8130     7.7170    -7.6360 ca         1 GY7      -0.128000
      6 C14          8.2240     6.4720    -8.0710 ca         1 GY7      -0.126000
      7 C15          7.6970     5.3300    -7.4970 ca         1 GY7      -0.121500
      8 C16          1.4130     0.3320    -6.3650 cc         1 GY7       0.012900
      9 C17          0.8360    -0.8180    -5.6560 c          1 GY7       0.654700
     10 C18          3.6490    -2.8150    -3.2190 c3         1 GY7      -0.096400
     11 C19          3.4160    -3.4070    -1.8040 c3         1 GY7      -0.096400
     12 C2           1.3990     0.0000     0.0000 ca         1 GY7      -0.218600
     13 C20          2.2670    -2.5100    -1.2780 c3         1 GY7       0.089000
     14 C21          2.0900     0.0000     1.2170 ca         1 GY7       0.189900
     15 C22          1.3870     0.0030     2.4070 ca         1 GY7      -0.185000
     16 C23          0.0040     0.0030     2.3970 ca         1 GY7      -0.063000
     17 C24         -0.6880     0.0080     1.1990 ca         1 GY7      -0.185000
     18 C3           2.1420    -0.0030    -1.2740 c          1 GY7       0.698700
     19 C4           3.3970    -1.3070    -3.0090 c3         1 GY7       0.085400
     20 C5           2.6740    -0.7370    -4.2030 cc         1 GY7       0.470900
     21 C6           2.6130     0.8420    -5.8960 cd         1 GY7       0.086400
     22 C7           3.2470     1.9970    -6.5710 c          1 GY7       0.685300
     23 C8           4.9210     3.7660    -6.6530 c3         1 GY7       0.117000
     24 C9           6.1680     4.1900    -5.8750 c3         1 GY7      -0.053100
     25 F1          -0.6770    -0.0000    -1.1690 f          1 GY7      -0.122400
     26 F2           3.4420    -0.0010     1.2290 f          1 GY7      -0.122400
     27 N1           2.5640    -1.1670    -1.8060 n          1 GY7      -0.495800
     28 N2           3.1980     0.2790    -4.8240 nd         1 GY7      -0.623300
     29 N3           4.3570     2.5560    -6.0490 ns         1 GY7      -0.574900
     30 N4           1.5100    -1.3090    -4.5930 ns         1 GY7      -0.438400
     31 O1           2.3720     1.0450    -1.8460 o          1 GY7      -0.555100
     32 O2           2.7660     2.4420    -7.5940 o          1 GY7      -0.579100
     33 O4          -0.2180    -1.3130    -6.0170 o          1 GY7      -0.625500
     34 H1           5.5950     6.7620    -5.2770 ha         1 GY7       0.131500
     35 H2           6.5460     8.7990    -6.2920 ha         1 GY7       0.130000
     36 H3           8.2280     8.6120    -8.0850 ha         1 GY7       0.129000
     37 H4           8.9650     6.3900    -8.8570 ha         1 GY7       0.130000
     38 H5           8.0200     4.3540    -7.8380 ha         1 GY7       0.131500
     39 H6           2.9380    -3.2250    -3.9260 hc         1 GY7       0.065700
     40 H7           4.6680    -2.9900    -3.5420 hc         1 GY7       0.065700
     41 H8           3.1010    -4.4410    -1.8660 hc         1 GY7       0.065700
     42 H9           4.3020    -3.2980    -1.1900 hc         1 GY7       0.065700
     43 H10          1.3140    -2.8600    -1.6560 h1         1 GY7       0.053700
     44 H11          2.2680    -2.4960    -0.1950 h1         1 GY7       0.053700
     45 H12          1.9210     0.0010     3.3500 ha         1 GY7       0.156500
     46 H13         -0.5410     0.0070     3.3340 ha         1 GY7       0.149000
     47 H14         -1.7710     0.0080     1.2000 ha         1 GY7       0.156500
     48 H15          4.3400    -0.7940    -2.8630 h1         1 GY7       0.103700
     49 H16          4.1860     4.5620    -6.6190 h1         1 GY7       0.056700
     50 H17          5.1880     3.5650    -7.6830 h1         1 GY7       0.056700
     51 H18          5.9010     4.3920    -4.8450 hc         1 GY7       0.053200
     52 H19          6.9020     3.3940    -5.9080 hc         1 GY7       0.053200
     53 H20          4.8120     2.1300    -5.2660 hn         1 GY7       0.331500
     54 H21          1.1440    -2.0920    -4.0890 hn         1 GY7       0.339500
     55 H22         -0.0620     1.1820    -7.1930 ho         1 GY7       0.431000
     56 O3           0.7940     0.8750    -7.4430 oh         1 GY7      -0.444100
@<TRIPOS>BOND
     1    26    14 1
     2    15    14 ar
     3    15    16 ar
     4    14    12 ar
     5    16    17 ar
     6    31    18 2
     7    12    18 1
     8    12     1 ar
     9    18    27 1
    10    17     1 ar
    11     1    25 1
    12    27    19 1
    13    27    13 1
    14    19    10 1
    15    19    20 1
    16    13    11 1
    17    30    20 1
    18    30     9 1
    19    10    11 1
    20    20    28 2
    21    33     9 2
    22     9     8 1
    23    28    21 1
    24     8    21 2
    25     8    56 1
    26    21    22 1
    27     6     5 ar
    28     6     7 ar
    29     5     4 ar
    30     7     2 ar
    31    29    22 1
    32    29    23 1
    33    22    32 2
    34     4     3 ar
    35    23    24 1
    36     2     3 ar
    37     2    24 1
    38     3    34 1
    39     4    35 1
    40     5    36 1
    41     6    37 1
    42     7    38 1
    43    10    39 1
    44    10    40 1
    45    11    41 1
    46    11    42 1
    47    13    43 1
    48    13    44 1
    49    15    45 1
    50    16    46 1
    51    17    47 1
    52    19    48 1
    53    23    49 1
    54    23    50 1
    55    24    51 1
    56    24    52 1
    57    29    53 1
    58    30    54 1
    59    56    55 1
@<TRIPOS>SUBSTRUCTURE
     1 GY7         1 TEMP              0 ****  ****    0 ROOT
