@<TRIPOS>MOLECULE
GY8
   56    60     1     0     0
SMALL
bcc


@<TRIPOS>ATOM
      1 C1           0.0000     0.0000     0.0000 ca         1 GY8      -0.134400
      2 C10          7.1480     4.4630    -7.5760 ca         1 GY8      -0.099300
      3 C11          7.0460     5.1100    -6.3580 ca         1 GY8      -0.099300
      4 C12          7.9350     6.1210    -6.0390 ca         1 GY8      -0.080500
      5 C13          8.9240     6.4870    -6.9320 ca         1 GY8      -0.102500
      6 C14          9.0250     5.8400    -8.1490 ca         1 GY8      -0.102500
      7 C15          8.1370     4.8330    -8.4720 ca         1 GY8      -0.080500
      8 C16          5.8910     4.5320    -5.5680 c3         1 GY8       0.027400
      9 C17          1.4990     0.3610    -6.3750 cc         1 GY8       0.050900
     10 C18          0.9040    -0.7860    -5.6780 c          1 GY8       0.548700
     11 C19          3.6680    -2.8150    -3.2120 c3         1 GY8      -0.038400
     12 C2           1.4000     0.0000     0.0000 ca         1 GY8      -0.107600
     13 C20          3.4110    -3.4130    -1.8030 c3         1 GY8      -0.029400
     14 C21          2.2630    -2.5100    -1.2870 c3         1 GY8       0.039000
     15 C22          2.0590     0.0000     1.2350 ca         1 GY8      -0.134400
     16 C23          1.3070     0.0000     2.3960 ca         1 GY8       0.408700
     17 C24         -0.6710     0.0060     1.2090 ca         1 GY8       0.408700
     18 C3           2.1610    -0.0010    -1.2680 c          1 GY8       0.622700
     19 C4           3.4270    -1.3060    -3.0000 c3         1 GY8       0.009400
     20 C5           2.7250    -0.7260    -4.2010 cc         1 GY8       0.237900
     21 C6           2.6980     0.8590    -5.8890 cd         1 GY8       0.004400
     22 C7           3.3490     2.0110    -6.5510 c          1 GY8       0.599300
     23 C8           5.0340     3.7710    -6.6010 c3         1 GY8       0.016700
     24 C9           6.0690     3.4070    -7.6860 c3         1 GY8       0.027400
     25 N1           2.5790    -1.1660    -1.8030 n          1 GY8      -0.166800
     26 N2           3.2640     0.2870    -4.8110 nd         1 GY8      -0.484300
     27 N3           4.4530     2.5640    -6.0090 ns         1 GY8      -0.173900
     28 N4           1.5570    -1.2840    -4.6050 ns         1 GY8       0.035600
     29 N5          -0.0100     0.0010     2.3500 nb         1 GY8      -0.546000
     30 O1           2.4090     1.0480    -1.8300 o          1 GY8      -0.598100
     31 O2           2.8900     2.4600    -7.5830 o          1 GY8      -0.627100
     32 O4          -0.1460    -1.2750    -6.0560 o          1 GY8      -0.668500
     33 Cl1         -0.8810    -0.0000    -1.4970 cl         1 GY8       0.020600
     34 Cl2          3.7930    -0.0010     1.3080 cl         1 GY8       0.020600
     35 H1           7.8550     6.6290    -5.0850 ha         1 GY8       0.102000
     36 H2           9.6200     7.2770    -6.6770 ha         1 GY8       0.102500
     37 H3           9.8000     6.1250    -8.8500 ha         1 GY8       0.102500
     38 H4           8.2180     4.3270    -9.4270 ha         1 GY8       0.102000
     39 H5           5.3120     5.3280    -5.1150 hc         1 GY8       0.028200
     40 H6           6.2590     3.8490    -4.8120 hc         1 GY8       0.028200
     41 H7           4.6900    -2.9980    -3.5220 hc         1 GY8       0.032700
     42 H8           2.9650    -3.2160    -3.9310 hc         1 GY8       0.032700
     43 H9           4.2890    -3.3170    -1.1770 hc         1 GY8       0.033200
     44 H10          3.0870    -4.4450    -1.8760 hc         1 GY8       0.033200
     45 H11          1.3120    -2.8490    -1.6800 h1         1 GY8       0.025200
     46 H12          2.2500    -2.5030    -0.2040 h1         1 GY8       0.025200
     47 H13          1.8080    -0.0020     3.3570 h4         1 GY8      -0.003400
     48 H14         -1.7540     0.0070     1.2190 h4         1 GY8      -0.003400
     49 H15          4.3730    -0.8020    -2.8410 h1         1 GY8       0.067700
     50 H16          4.2650     4.4160    -7.0090 h1         1 GY8       0.063700
     51 H17          5.6110     3.4400    -8.6670 hc         1 GY8       0.028200
     52 H18          6.4850     2.4250    -7.4920 hc         1 GY8       0.028200
     53 H19          4.8670     2.1570    -5.1940 hn         1 GY8       0.192500
     54 H20          1.1790    -2.0660    -4.1080 hn         1 GY8       0.183500
     55 H21          0.0430     1.2270    -7.2190 ho         1 GY8       0.411000
     56 O3           0.8990     0.9120    -7.4590 oh         1 GY8      -0.417100
@<TRIPOS>BOND
     1     1    12 ar  
     2     1    17 ar  
     3     1    33 1   
     4     2     3 ar  
     5     2     7 ar  
     6     2    24 1   
     7     3     4 ar  
     8     3     8 1   
     9     4     5 ar  
    10     4    35 1   
    11     5     6 ar  
    12     5    36 1   
    13     6     7 ar  
    14     6    37 1   
    15     7    38 1   
    16     8    23 1   
    17     8    39 1   
    18     8    40 1   
    19     9    10 1   
    20     9    21 2   
    21     9    56 1   
    22    10    28 1   
    23    10    32 2   
    24    11    13 1   
    25    11    19 1   
    26    11    41 1   
    27    11    42 1   
    28    12    15 ar  
    29    12    18 1   
    30    13    14 1   
    31    13    43 1   
    32    13    44 1   
    33    14    25 1   
    34    14    45 1   
    35    14    46 1   
    36    15    16 ar  
    37    15    34 1   
    38    16    29 ar  
    39    16    47 1   
    40    17    29 ar  
    41    17    48 1   
    42    18    25 1   
    43    18    30 2   
    44    19    20 1   
    45    19    25 1   
    46    19    49 1   
    47    20    26 2   
    48    20    28 1   
    49    21    22 1   
    50    21    26 1   
    51    22    27 1   
    52    22    31 2   
    53    23    24 1   
    54    23    27 1   
    55    23    50 1   
    56    24    51 1   
    57    24    52 1   
    58    27    53 1   
    59    28    54 1   
    60    55    56 1   
@<TRIPOS>SUBSTRUCTURE
     1 GY8         1 TEMP              0 ****  ****    0 ROOT
