@<TRIPOS>MOLECULE
molecule
   56    60     1     0     0
SMALL
bcc


@<TRIPOS>ATOM
      1 C1           0.0000     0.0000     0.0000 ca         1 GY8      -0.070900
      2 C10          7.1480     4.4630    -7.5760 ca         1 GY8      -0.092300
      3 C11          7.0460     5.1100    -6.3580 ca         1 GY8      -0.092300
      4 C12          7.9350     6.1210    -6.0390 ca         1 GY8      -0.112500
      5 C13          8.9240     6.4870    -6.9320 ca         1 GY8      -0.128000
      6 C14          9.0250     5.8400    -8.1490 ca         1 GY8      -0.128000
      7 C15          8.1370     4.8330    -8.4720 ca         1 GY8      -0.112500
      8 C16          5.8910     4.5320    -5.5680 c3         1 GY8      -0.047600
      9 C17          1.4990     0.3610    -6.3750 cc         1 GY8       0.014900
     10 C18          0.9040    -0.7860    -5.6780 c          1 GY8       0.653700
     11 C19          3.6680    -2.8150    -3.2120 c3         1 GY8      -0.096400
     12 C2           1.4000     0.0000     0.0000 ca         1 GY8      -0.089600
     13 C20          3.4110    -3.4130    -1.8030 c3         1 GY8      -0.095400
     14 C21          2.2630    -2.5100    -1.2870 c3         1 GY8       0.087000
     15 C22          2.0590     0.0000     1.2350 ca         1 GY8      -0.070900
     16 C23          1.3070     0.0000     2.3960 ca         1 GY8       0.430700
     17 C24         -0.6710     0.0060     1.2090 ca         1 GY8       0.430700
     18 C3           2.1610    -0.0010    -1.2680 c          1 GY8       0.692700
     19 C4           3.4270    -1.3060    -3.0000 c3         1 GY8       0.086400
     20 C5           2.7250    -0.7260    -4.2010 cd         1 GY8       0.470900
     21 C6           2.6980     0.8590    -5.8890 cc         1 GY8       0.085400
     22 C7           3.3490     2.0110    -6.5510 c          1 GY8       0.686300
     23 C8           5.0340     3.7710    -6.6010 c3         1 GY8       0.119700
     24 C9           6.0690     3.4070    -7.6860 c3         1 GY8      -0.047600
     25 N1           2.5790    -1.1660    -1.8030 n          1 GY8      -0.494800
     26 N2           3.2640     0.2870    -4.8110 nc         1 GY8      -0.623300
     27 N3           4.4530     2.5640    -6.0090 ns         1 GY8      -0.564900
     28 N4           1.5570    -1.2840    -4.6050 ns         1 GY8      -0.440400
     29 N5          -0.0100     0.0010     2.3500 nb         1 GY8      -0.655000
     30 O1           2.4090     1.0480    -1.8300 o          1 GY8      -0.550100
     31 O2           2.8900     2.4600    -7.5830 o          1 GY8      -0.579100
     32 O4          -0.1460    -1.2750    -6.0560 o          1 GY8      -0.623500
     33 Cl1         -0.8810    -0.0000    -1.4970 cl         1 GY8      -0.066900
     34 Cl2          3.7930    -0.0010     1.3080 cl         1 GY8      -0.066900
     35 H1           7.8550     6.6290    -5.0850 ha         1 GY8       0.129000
     36 H2           9.6200     7.2770    -6.6770 ha         1 GY8       0.130000
     37 H3           9.8000     6.1250    -8.8500 ha         1 GY8       0.130000
     38 H4           8.2180     4.3270    -9.4270 ha         1 GY8       0.129000
     39 H5           5.3120     5.3280    -5.1150 hc         1 GY8       0.061700
     40 H6           6.2590     3.8490    -4.8120 hc         1 GY8       0.061700
     41 H7           4.6900    -2.9980    -3.5220 hc         1 GY8       0.066700
     42 H8           2.9650    -3.2160    -3.9310 hc         1 GY8       0.066700
     43 H9           4.2890    -3.3170    -1.1770 hc         1 GY8       0.066700
     44 H10          3.0870    -4.4450    -1.8760 hc         1 GY8       0.066700
     45 H11          1.3120    -2.8490    -1.6800 h1         1 GY8       0.055200
     46 H12          2.2500    -2.5030    -0.2040 h1         1 GY8       0.055200
     47 H13          1.8080    -0.0020     3.3570 h4         1 GY8       0.046600
     48 H14         -1.7540     0.0070     1.2190 h4         1 GY8       0.046600
     49 H15          4.3730    -0.8020    -2.8410 h1         1 GY8       0.104700
     50 H16          4.2650     4.4160    -7.0090 h1         1 GY8       0.090700
     51 H17          5.6110     3.4400    -8.6670 hc         1 GY8       0.061700
     52 H18          6.4850     2.4250    -7.4920 hc         1 GY8       0.061700
     53 H19          4.8670     2.1570    -5.1940 hn         1 GY8       0.333500
     54 H20          1.1790    -2.0660    -4.1080 hn         1 GY8       0.340500
     55 H21          0.0430     1.2270    -7.2190 ho         1 GY8       0.431000
     56 O3           0.8990     0.9120    -7.4590 oh         1 GY8      -0.443100
@<TRIPOS>BOND
     1     6     5 ar
     2     6     7 ar
     3     5     4 ar
     4     7     2 ar
     5     4     3 ar
     6     2     3 ar
     7     2    24 1
     8     3     8 1
     9    30    18 2
    10    24    23 1
    11     8    23 1
    12    34    15 1
    13    18    12 1
    14    18    25 1
    15    23    27 1
    16    15    12 ar
    17    15    16 ar
    18    12     1 ar
    19    16    29 ar
    20    14    25 1
    21    14    13 1
    22    27    22 1
    23     1    33 1
    24     1    17 ar
    25    25    19 1
    26    29    17 ar
    27    22    31 2
    28    22    21 1
    29    13    11 1
    30    26    21 1
    31    26    20 2
    32    19    20 1
    33    19    11 1
    34    21     9 2
    35    20    28 1
    36     9    56 1
    37     9    10 1
    38    28    10 1
    39    10    32 2
    40     4    35 1
    41     5    36 1
    42     6    37 1
    43     7    38 1
    44     8    39 1
    45     8    40 1
    46    11    41 1
    47    11    42 1
    48    13    43 1
    49    13    44 1
    50    14    45 1
    51    14    46 1
    52    16    47 1
    53    17    48 1
    54    19    49 1
    55    23    50 1
    56    24    51 1
    57    24    52 1
    58    27    53 1
    59    28    54 1
    60    56    55 1
@<TRIPOS>SUBSTRUCTURE
     1 GY8         1 TEMP              0 ****  ****    0 ROOT
