@<TRIPOS>MOLECULE
GY9
   61    64     1     0     0
SMALL
bcc


@<TRIPOS>ATOM
      1 C1           0.0000     0.0000     0.0000 cc         1 GY9       0.213900
      2 C10          1.2480     0.6860    -2.7150 c          1 GY9       0.607100
      3 C11          2.0970     0.4500    -3.9370 c3         1 GY9       0.140400
      4 C12          5.6700    -0.0010     2.1920 c3         1 GY9       0.052000
      5 C13          6.2380    -0.3050     3.5800 c3         1 GY9       0.187400
      6 C14          5.9650     0.9770    -6.9670 ca         1 GY9      -0.138000
      7 C15          6.1400     1.9410    -5.9920 ca         1 GY9      -0.062000
      8 C16          5.2030     2.0850    -4.9860 ca         1 GY9      -0.073600
      9 C17          4.0850     1.2630    -4.9580 ca         1 GY9       0.156100
     10 C18          3.9130     0.2970    -5.9380 ca         1 GY9      -0.210000
     11 C19          4.8520     0.1550    -6.9400 ca         1 GY9      -0.058000
     12 C2           2.0180     0.0000     1.1390 cd         1 GY9       0.047400
     13 C20          7.0900    -2.9300     7.6780 ca         1 GY9      -0.145000
     14 C21          6.6290    -3.8490     6.7520 ca         1 GY9      -0.057500
     15 C22          6.2670    -3.4320     5.4860 ca         1 GY9      -0.176500
     16 C23          6.3650    -2.0910     5.1440 ca         1 GY9       0.151100
     17 C24          6.8260    -1.1720     6.0750 ca         1 GY9      -0.176500
     18 C25          7.1870    -1.5940     7.3400 ca         1 GY9      -0.057500
     19 C3           1.3600    -0.0010     2.3580 cc         1 GY9      -0.019100
     20 C4          -0.1090    -0.0070     2.3420 c          1 GY9       0.555700
     21 C5           3.4970     0.0070     1.0900 c          1 GY9       0.591300
     22 C6          -1.5820    -1.6510    -2.8640 c3         1 GY9      -0.027400
     23 C7          -1.7030    -1.1830    -1.3900 c3         1 GY9      -0.042400
     24 C8          -0.7230     0.0070    -1.3220 c3         1 GY9       0.018400
     25 C9          -0.0790    -1.4010    -3.1460 c3         1 GY9       0.045000
     26 N1           1.3000     0.0000     0.0000 nd         1 GY9      -0.420300
     27 N2          -0.7290    -0.0000     1.1420 ns         1 GY9       0.051600
     28 N3           4.2100    -0.1190     2.2260 ns         1 GY9      -0.215900
     29 N4           0.2410    -0.1590    -2.4200 n          1 GY9      -0.155800
     30 O1           2.0480     0.0040     3.5270 oh         1 GY9      -0.459100
     31 O2          -0.7500    -0.0080     3.3800 o          1 GY9      -0.691500
     32 O3           4.0690     0.1240     0.0230 o          1 GY9      -0.615100
     33 O4           3.1620     1.4020    -3.9700 os         1 GY9      -0.250900
     34 O5           1.4720     1.6380    -1.9960 o          1 GY9      -0.586100
     35 O6           6.0080    -1.6790     3.8990 os         1 GY9      -0.307900
     36 H1           2.5100    -0.5520    -3.9010 h1         1 GY9       0.014200
     37 H2           1.4880     0.5580    -4.8260 h1         1 GY9       0.014200
     38 H3           6.0720    -0.7060     1.4750 h1         1 GY9       0.035200
     39 H4           5.9440     1.0060     1.9020 h1         1 GY9       0.035200
     40 H5           7.3030    -0.1060     3.5860 h1         1 GY9       0.008700
     41 H6           5.7490     0.3230     4.3160 h1         1 GY9       0.008700
     42 H7           6.7000     0.8650    -7.7540 ha         1 GY9       0.106000
     43 H8           7.0130     2.5830    -6.0160 ha         1 GY9       0.113000
     44 H9           3.0410    -0.3470    -5.9180 ha         1 GY9       0.115000
     45 H10          4.7180    -0.5990    -7.7060 ha         1 GY9       0.100000
     46 H11          7.3730    -3.2590     8.6710 ha         1 GY9       0.105000
     47 H12          6.5530    -4.8960     7.0200 ha         1 GY9       0.101000
     48 H13          5.9060    -4.1520     4.7600 ha         1 GY9       0.117500
     49 H14          6.9030    -0.1250     5.8110 ha         1 GY9       0.117500
     50 H15          7.5480    -0.8760     8.0670 ha         1 GY9       0.101000
     51 H16         -2.2020    -1.0450    -3.5130 hc         1 GY9       0.028200
     52 H17         -1.8220    -2.7030    -2.9560 hc         1 GY9       0.028200
     53 H18         -1.3940    -1.9710    -0.7130 hc         1 GY9       0.028700
     54 H19         -2.7140    -0.8580    -1.1750 hc         1 GY9       0.028700
     55 H20         -1.2650     0.9370    -1.4470 h1         1 GY9       0.046700
     56 H21          0.5160    -2.2220    -2.7660 h1         1 GY9       0.021700
     57 H22          0.0860    -1.2680    -4.2090 h1         1 GY9       0.021700
     58 H23         -1.7290    -0.0040     1.0960 hn         1 GY9       0.182500
     59 H24          3.7450    -0.3260     3.0880 hn         1 GY9       0.215500
     60 H25          1.5260     0.4110     4.1980 ho         1 GY9       0.430000
     61 Cl1          5.4230     3.2950    -3.7610 cl         1 GY9       0.005600
@<TRIPOS>BOND
     1     1    24 1   
     2     1    26 2   
     3     1    27 1   
     4     2     3 1   
     5     2    29 1   
     6     2    34 2   
     7     3    33 1   
     8     3    36 1   
     9     3    37 1   
    10     4     5 1   
    11     4    28 1   
    12     4    38 1   
    13     4    39 1   
    14     5    35 1   
    15     5    40 1   
    16     5    41 1   
    17     6     7 ar  
    18     6    11 ar  
    19     6    42 1   
    20     7     8 ar  
    21     7    43 1   
    22     8     9 ar  
    23     8    61 1   
    24     9    10 ar  
    25     9    33 1   
    26    10    11 ar  
    27    10    44 1   
    28    11    45 1   
    29    12    19 2   
    30    12    21 1   
    31    12    26 1   
    32    13    14 ar  
    33    13    18 ar  
    34    13    46 1   
    35    14    15 ar  
    36    14    47 1   
    37    15    16 ar  
    38    15    48 1   
    39    16    17 ar  
    40    16    35 1   
    41    17    18 ar  
    42    17    49 1   
    43    18    50 1   
    44    19    20 1   
    45    19    30 1   
    46    20    27 1   
    47    20    31 2   
    48    21    28 1   
    49    21    32 2   
    50    22    23 1   
    51    22    25 1   
    52    22    51 1   
    53    22    52 1   
    54    23    24 1   
    55    23    53 1   
    56    23    54 1   
    57    24    29 1   
    58    24    55 1   
    59    25    29 1   
    60    25    56 1   
    61    25    57 1   
    62    27    58 1   
    63    28    59 1   
    64    30    60 1   
@<TRIPOS>SUBSTRUCTURE
     1 GY9         1 TEMP              0 ****  ****    0 ROOT
