@<TRIPOS>MOLECULE
molecule
   61    64     1     0     0
SMALL
bcc


@<TRIPOS>ATOM
      1 C1           0.0000     0.0000     0.0000 cc         1 GY9       0.448900
      2 C10          1.2480     0.6860    -2.7150 c          1 GY9       0.690100
      3 C11          2.0970     0.4500    -3.9370 c3         1 GY9       0.076400
      4 C12          5.6700    -0.0010     2.1920 c3         1 GY9       0.120000
      5 C13          6.2380    -0.3050     3.5800 c3         1 GY9       0.119400
      6 C14          5.9650     0.9770    -6.9670 ca         1 GY9      -0.160000
      7 C15          6.1400     1.9410    -5.9920 ca         1 GY9      -0.088000
      8 C16          5.2030     2.0850    -4.9860 ca         1 GY9       0.004400
      9 C17          4.0850     1.2630    -4.9580 ca         1 GY9       0.153100
     10 C18          3.9130     0.2970    -5.9380 ca         1 GY9      -0.220000
     11 C19          4.8520     0.1550    -6.9400 ca         1 GY9      -0.090000
     12 C2           2.0180     0.0000     1.1390 cc         1 GY9       0.113400
     13 C20          7.0900    -2.9300     7.6780 ca         1 GY9      -0.167000
     14 C21          6.6290    -3.8490     6.7520 ca         1 GY9      -0.091000
     15 C22          6.2670    -3.4320     5.4860 ca         1 GY9      -0.189500
     16 C23          6.3650    -2.0910     5.1440 ca         1 GY9       0.141100
     17 C24          6.8260    -1.1720     6.0750 ca         1 GY9      -0.189500
     18 C25          7.1870    -1.5940     7.3400 ca         1 GY9      -0.091000
     19 C3           1.3600    -0.0010     2.3580 cd         1 GY9      -0.037100
     20 C4          -0.1090    -0.0070     2.3420 c          1 GY9       0.659700
     21 C5           3.4970     0.0070     1.0900 c          1 GY9       0.679300
     22 C6          -1.5820    -1.6510    -2.8640 c3         1 GY9      -0.093400
     23 C7          -1.7030    -1.1830    -1.3900 c3         1 GY9      -0.101400
     24 C8          -0.7230     0.0070    -1.3220 c3         1 GY9       0.095400
     25 C9          -0.0790    -1.4010    -3.1460 c3         1 GY9       0.093000
     26 N1           1.3000     0.0000     0.0000 nc         1 GY9      -0.556300
     27 N2          -0.7290    -0.0000     1.1420 ns         1 GY9      -0.439400
     28 N3           4.2100    -0.1190     2.2260 ns         1 GY9      -0.581900
     29 N4           0.2410    -0.1590    -2.4200 n          1 GY9      -0.488800
     30 O1           2.0480     0.0040     3.5270 oh         1 GY9      -0.485100
     31 O2          -0.7500    -0.0080     3.3800 o          1 GY9      -0.643500
     32 O3           4.0690     0.1240     0.0230 o          1 GY9      -0.570100
     33 O4           3.1620     1.4020    -3.9700 os         1 GY9      -0.275900
     34 O5           1.4720     1.6380    -1.9960 o          1 GY9      -0.537100
     35 O6           6.0080    -1.6790     3.8990 os         1 GY9      -0.328900
     36 H1           2.5100    -0.5520    -3.9010 h1         1 GY9       0.052200
     37 H2           1.4880     0.5580    -4.8260 h1         1 GY9       0.052200
     38 H3           6.0720    -0.7060     1.4750 h1         1 GY9       0.066700
     39 H4           5.9440     1.0060     1.9020 h1         1 GY9       0.066700
     40 H5           7.3030    -0.1060     3.5860 h1         1 GY9       0.044200
     41 H6           5.7490     0.3230     4.3160 h1         1 GY9       0.044200
     42 H7           6.7000     0.8650    -7.7540 ha         1 GY9       0.135000
     43 H8           7.0130     2.5830    -6.0160 ha         1 GY9       0.147000
     44 H9           3.0410    -0.3470    -5.9180 ha         1 GY9       0.133000
     45 H10          4.7180    -0.5990    -7.7060 ha         1 GY9       0.131000
     46 H11          7.3730    -3.2590     8.6710 ha         1 GY9       0.130000
     47 H12          6.5530    -4.8960     7.0200 ha         1 GY9       0.131500
     48 H13          5.9060    -4.1520     4.7600 ha         1 GY9       0.138500
     49 H14          6.9030    -0.1250     5.8110 ha         1 GY9       0.138500
     50 H15          7.5480    -0.8760     8.0670 ha         1 GY9       0.131500
     51 H16         -2.2020    -1.0450    -3.5130 hc         1 GY9       0.062200
     52 H17         -1.8220    -2.7030    -2.9560 hc         1 GY9       0.062200
     53 H18         -1.3940    -1.9710    -0.7130 hc         1 GY9       0.062700
     54 H19         -2.7140    -0.8580    -1.1750 hc         1 GY9       0.062700
     55 H20         -1.2650     0.9370    -1.4470 h1         1 GY9       0.082700
     56 H21          0.5160    -2.2220    -2.7660 h1         1 GY9       0.051700
     57 H22          0.0860    -1.2680    -4.2090 h1         1 GY9       0.051700
     58 H23         -1.7290    -0.0040     1.0960 hn         1 GY9       0.340500
     59 H24          3.7450    -0.3260     3.0880 hn         1 GY9       0.345500
     60 H25          1.5260     0.4110     4.1980 ho         1 GY9       0.448000
     61 Cl1          5.4230     3.2950    -3.7610 cl         1 GY9      -0.081400
@<TRIPOS>BOND
     1    13    18 ar
     2    13    14 ar
     3    18    17 ar
     4    14    15 ar
     5    17    16 ar
     6    15    16 ar
     7    16    35 1
     8    35     5 1
     9     5     4 1
    10    34     2 2
    11     3    33 1
    12     3     2 1
    13    61     8 1
    14     4    28 1
    15    33     9 1
    16     2    29 1
    17     8     9 ar
    18     8     7 ar
    19     9    10 ar
    20    28    21 1
    21     7     6 ar
    22    10    11 ar
    23    29    25 1
    24    29    24 1
    25     6    11 ar
    26    21    32 2
    27    21    12 1
    28    25    22 1
    29    26    12 1
    30    26     1 2
    31    12    19 2
    32    24     1 1
    33    24    23 1
    34     1    27 1
    35    19    30 1
    36    19    20 1
    37    22    23 1
    38    27    20 1
    39    20    31 2
    40     3    36 1
    41     3    37 1
    42     4    38 1
    43     4    39 1
    44     5    40 1
    45     5    41 1
    46     6    42 1
    47     7    43 1
    48    10    44 1
    49    11    45 1
    50    13    46 1
    51    14    47 1
    52    15    48 1
    53    17    49 1
    54    18    50 1
    55    22    51 1
    56    22    52 1
    57    23    53 1
    58    23    54 1
    59    24    55 1
    60    25    56 1
    61    25    57 1
    62    27    58 1
    63    28    59 1
    64    30    60 1
@<TRIPOS>SUBSTRUCTURE
     1 GY9         1 TEMP              0 ****  ****    0 ROOT
