@<TRIPOS>MOLECULE
molecule
   69    73     1     0     0
SMALL
bcc


@<TRIPOS>ATOM
      1 C1           0.0000     0.0000     0.0000 c          1 GYA       0.655700
      2 C10         10.2370    -5.0570     3.4770 c3         1 GYA       0.128200
      3 C11          9.4640    -1.8410     5.0650 ca         1 GYA       0.111100
      4 C12         10.4690    -0.5200     6.7690 c3         1 GYA       0.128200
      5 C13          8.4900    -0.8640     4.9590 ca         1 GYA      -0.164500
      6 C14          7.4580    -1.0030     4.0430 ca         1 GYA      -0.122800
      7 C15          6.1670     0.6120     3.8820 c3         1 GYA      -0.030600
      8 C16          0.0840     0.0000     2.3430 cc         1 GYA       0.468900
      9 C17         -0.6530     0.0060     3.6570 c3         1 GYA       0.088400
     10 C19          2.1950    -0.4770     6.2380 c3         1 GYA      -0.114300
     11 C2           1.4680     0.0000     0.0000 cd         1 GYA       0.010900
     12 C20          4.3610    -1.3530     7.7770 ca         1 GYA       0.015900
     13 C21          4.0730    -0.1750     8.4540 ca         1 GYA      -0.151000
     14 C22          4.8290     0.1930     9.5500 ca         1 GYA      -0.112000
     15 C23          5.8720    -0.6100     9.9750 ca         1 GYA      -0.131000
     16 C24          6.1630    -1.7850     9.3030 ca         1 GYA      -0.103000
     17 C25          5.4070    -2.1620     8.2100 ca         1 GYA       0.042400
     18 C26          0.0110     1.3850     5.4970 c3         1 GYA       0.092000
     19 C27         -1.4800     1.6780     5.2010 c3         1 GYA      -0.091400
     20 C28         -1.5990     1.2240     3.7230 c3         1 GYA      -0.099400
     21 C3           2.1130     0.0000     1.2260 cc         1 GYA       0.088400
     22 C4           3.5910     0.0010     1.2910 c          1 GYA       0.688300
     23 C5           5.6770     0.0010     2.5520 c3         1 GYA       0.159700
     24 C6           6.2230    -1.4400     2.6260 c3         1 GYA      -0.030600
     25 C7           7.4020    -2.1220     3.2330 ca         1 GYA      -0.122800
     26 C8           8.3750    -3.1020     3.3360 ca         1 GYA      -0.164500
     27 C9           9.4090    -2.9640     4.2450 ca         1 GYA       0.111100
     28 N1           4.2140     0.0010     2.4870 ns         1 GYA      -0.561900
     29 N2           1.3840     0.0000     2.3570 nc         1 GYA      -0.628300
     30 N3           0.3020     0.1370     4.7670 n          1 GYA      -0.482800
     31 N4          -0.6330     0.0050     1.1940 ns         1 GYA      -0.444400
     32 O1          -0.6290    -0.0010    -1.0440 o          1 GYA      -0.618500
     33 O2           2.1690    -0.0010    -1.1620 oh         1 GYA      -0.443100
     34 O3          10.3640    -3.9280     4.3440 os         1 GYA      -0.314400
     35 O5           4.2450     0.0010     0.2660 o          1 GYA      -0.576100
     36 O6           1.3760    -1.7760     4.4450 o          1 GYA      -0.562100
     37 S1           3.3990    -1.8260     6.3790 ss         1 GYA      -0.117000
     38 Cl1          5.7720    -3.6350     7.3680 cl         1 GYA      -0.076400
     39 H1          11.0560    -5.7430     3.6550 h1         1 GYA       0.038700
     40 H2          10.2610    -4.7250     2.4460 h1         1 GYA       0.038700
     41 H3           9.2970    -5.5590     3.6730 h1         1 GYA       0.038700
     42 H4          11.3200    -0.5350     7.4390 h1         1 GYA       0.038700
     43 H5          10.5360     0.3440     6.1190 h1         1 GYA       0.038700
     44 H6           9.5550    -0.4650     7.3480 h1         1 GYA       0.038700
     45 H7           8.5310     0.0110     5.5970 ha         1 GYA       0.137500
     46 H8           6.7280     1.5380     3.8570 hc         1 GYA       0.058450
     47 H9           5.4640     0.6120     4.7060 hc         1 GYA       0.058450
     48 H10         -1.2240    -0.9080     3.7700 h1         1 GYA       0.088700
     49 H11          2.7170     0.4600     6.0860 h1         1 GYA       0.078700
     50 H12          1.6080    -0.4200     7.1470 h1         1 GYA       0.078700
     51 H13          3.2580     0.4560     8.1210 ha         1 GYA       0.128000
     52 H14          4.6050     1.1110    10.0790 ha         1 GYA       0.132000
     53 H15          6.4650    -0.3180    10.8330 ha         1 GYA       0.137000
     54 H16          6.9790    -2.4130     9.6390 ha         1 GYA       0.150000
     55 H17          0.1620     1.2420     6.5600 h1         1 GYA       0.051200
     56 H18          0.6340     2.1900     5.1260 h1         1 GYA       0.051200
     57 H19         -2.1240     1.0860     5.8400 hc         1 GYA       0.064700
     58 H20         -1.6910     2.7360     5.2970 hc         1 GYA       0.064700
     59 H21         -1.2610     2.0070     3.0550 hc         1 GYA       0.064200
     60 H22         -2.6170     0.9300     3.4950 hc         1 GYA       0.064200
     61 H23          6.1060     0.5290     1.7090 h1         1 GYA       0.092700
     62 H24          6.5240    -1.7660     1.6380 hc         1 GYA       0.058450
     63 H25          5.4810    -2.0870     3.0790 hc         1 GYA       0.058450
     64 H26          8.3300    -3.9750     2.6970 ha         1 GYA       0.137500
     65 H27          3.6770     0.0310     3.3310 hn         1 GYA       0.332500
     66 H28         -1.6340     0.0060     1.2290 hn         1 GYA       0.339500
     67 H29          1.9880     0.7920    -1.6390 ho         1 GYA       0.429000
     68 C18          1.2830    -0.7390     5.0660 c          1 GYA       0.705100
     69 O4          10.4740    -1.7010     5.9650 os         1 GYA      -0.314400
@<TRIPOS>BOND
     1    38    17 1
     2    16    17 ar
     3    16    15 ar
     4    17    12 ar
     5     2    34 1
     6    15    14 ar
     7    12    37 1
     8    12    13 ar
     9    37    10 1
    10    34    27 1
    11    14    13 ar
    12    26    27 ar
    13    26    25 ar
    14    27     3 ar
    15    10    68 1
    16    24    25 1
    17    24    23 1
    18    25     6 ar
    19     4    69 1
    20    36    68 2
    21     3    69 1
    22     3     5 ar
    23    68    30 1
    24     6     5 ar
    25     6     7 1
    26    23    28 1
    27    23     7 1
    28    28    22 1
    29    30    18 1
    30    30     9 1
    31    22    35 2
    32    22    21 1
    33    18    19 1
    34    29    21 1
    35    29     8 2
    36    21    11 2
    37     9     8 1
    38     9    20 1
    39     8    31 1
    40    11    33 1
    41    11     1 1
    42    19    20 1
    43    31     1 1
    44     1    32 2
    45     2    39 1
    46     2    40 1
    47     2    41 1
    48     4    42 1
    49     4    43 1
    50     4    44 1
    51     5    45 1
    52     7    46 1
    53     7    47 1
    54     9    48 1
    55    10    49 1
    56    10    50 1
    57    13    51 1
    58    14    52 1
    59    15    53 1
    60    16    54 1
    61    18    55 1
    62    18    56 1
    63    19    57 1
    64    19    58 1
    65    20    59 1
    66    20    60 1
    67    23    61 1
    68    24    62 1
    69    24    63 1
    70    26    64 1
    71    28    65 1
    72    31    66 1
    73    33    67 1
@<TRIPOS>SUBSTRUCTURE
     1 GYA         1 TEMP              0 ****  ****    0 ROOT
