@<TRIPOS>MOLECULE
GYA
   69    72     1     0     0
SMALL
bcc


@<TRIPOS>ATOM
      1 C1           0.0000     0.0000     0.0000 c2         1 GYA       0.188000
      2 C10         10.2370    -5.0570     3.4770 c3         1 GYA       0.050000
      3 C11          9.4640    -1.8410     5.0650 c2         1 GYA       0.064000
      4 C12         10.4690    -0.5200     6.7690 c3         1 GYA       0.051000
      5 C13          8.4900    -0.8640     4.9590 c2         1 GYA      -0.187000
      6 C14          7.4580    -1.0030     4.0430 c1         1 GYA      -0.143000
      7 C15          6.1670     0.6120     3.8820 c2         1 GYA      -0.024000
      8 C16          0.0840     0.0000     2.3430 c2         1 GYA      -0.128000
      9 C17         -0.6530     0.0060     3.6570 c3         1 GYA       0.011000
     10 C19          2.1950    -0.4770     6.2380 c3         1 GYA      -0.224000
     11 C2           1.4680     0.0000     0.0000 c2         1 GYA       0.021000
     12 C20          4.3610    -1.3530     7.7770 ca         1 GYA      -0.180000
     13 C21          4.0730    -0.1750     8.4540 ca         1 GYA      -0.130000
     14 C22          4.8290     0.1930     9.5500 ca         1 GYA      -0.087000
     15 C23          5.8720    -0.6100     9.9750 ca         1 GYA      -0.096000
     16 C24          6.1630    -1.7850     9.3030 ca         1 GYA      -0.085000
     17 C25          5.4070    -2.1620     8.2100 ca         1 GYA      -0.094000
     18 C26          0.0110     1.3850     5.4970 c3         1 GYA      -0.073000
     19 C27         -1.4800     1.6780     5.2010 c3         1 GYA      -0.104000
     20 C28         -1.5990     1.2240     3.7230 c3         1 GYA      -0.120000
     21 C3           2.1130     0.0000     1.2260 c2         1 GYA      -0.111000
     22 C4           3.5910     0.0010     1.2910 c2         1 GYA       0.276000
     23 C5           5.6770     0.0010     2.5520 c3         1 GYA      -0.020000
     24 C6           6.2230    -1.4400     2.6260 c3         1 GYA      -0.039000
     25 C7           7.4020    -2.1220     3.2330 c2         1 GYA      -0.100000
     26 C8           8.3750    -3.1020     3.3360 c2         1 GYA      -0.108000
     27 C9           9.4090    -2.9640     4.2450 c2         1 GYA       0.067000
     28 N1           4.2140     0.0010     2.4870 ns         1 GYA       0.018000
     29 N2           1.3840     0.0000     2.3570 n2         1 GYA      -0.078000
     30 N3           0.3020     0.1370     4.7670 n          1 GYA      -0.006000
     31 N4          -0.6330     0.0050     1.1940 ns         1 GYA       0.199000
     32 O1          -0.6290    -0.0010    -1.0440 o          1 GYA      -0.387000
     33 O2           2.1690    -0.0010    -1.1620 oh         1 GYA      -0.172000
     34 O3          10.3640    -3.9280     4.3440 os         1 GYA      -0.176000
     35 O5           4.2450     0.0010     0.2660 o          1 GYA      -0.386000
     36 O6           1.3760    -1.7760     4.4450 o          1 GYA      -0.358000
     37 S1           3.3990    -1.8260     6.3790 ss         1 GYA       0.160000
     38 Cl1          5.7720    -3.6350     7.3680 cl         1 GYA       0.101000
     39 H1          11.0560    -5.7430     3.6550 h1         1 GYA       0.036000
     40 H2          10.2610    -4.7250     2.4460 h1         1 GYA       0.036000
     41 H3           9.2970    -5.5590     3.6730 h1         1 GYA       0.036000
     42 H4          11.3200    -0.5350     7.4390 h1         1 GYA       0.033667
     43 H5          10.5360     0.3440     6.1190 h1         1 GYA       0.033667
     44 H6           9.5550    -0.4650     7.3480 h1         1 GYA       0.033667
     45 H7           8.5310     0.0110     5.5970 ha         1 GYA       0.117000
     46 H8           6.7280     1.5380     3.8570 ha         1 GYA       0.058000
     47 H9           5.4640     0.6120     4.7060 ha         1 GYA       0.058000
     48 H10         -1.2240    -0.9080     3.7700 h1         1 GYA       0.092000
     49 H11          2.7170     0.4600     6.0860 h1         1 GYA       0.091500
     50 H12          1.6080    -0.4200     7.1470 h1         1 GYA       0.091500
     51 H13          3.2580     0.4560     8.1210 ha         1 GYA       0.108000
     52 H14          4.6050     1.1110    10.0790 ha         1 GYA       0.104000
     53 H15          6.4650    -0.3180    10.8330 ha         1 GYA       0.107000
     54 H16          6.9790    -2.4130     9.6390 ha         1 GYA       0.119000
     55 H17          0.1620     1.2420     6.5600 h1         1 GYA       0.060000
     56 H18          0.6340     2.1900     5.1260 h1         1 GYA       0.060000
     57 H19         -2.1240     1.0860     5.8400 hc         1 GYA       0.070500
     58 H20         -1.6910     2.7360     5.2970 hc         1 GYA       0.070500
     59 H21         -1.2610     2.0070     3.0550 hc         1 GYA       0.070000
     60 H22         -2.6170     0.9300     3.4950 hc         1 GYA       0.070000
     61 H23          6.1060     0.5290     1.7090 h1         1 GYA       0.101000
     62 H24          6.5240    -1.7660     1.6380 hc         1 GYA       0.063500
     63 H25          5.4810    -2.0870     3.0790 hc         1 GYA       0.063500
     64 H26          8.3300    -3.9750     2.6970 ha         1 GYA       0.119000
     65 H27          3.6770     0.0310     3.3310 hn         1 GYA       0.106000
     66 H28         -1.6340     0.0060     1.2290 hn         1 GYA       0.096000
     67 H29          1.9880     0.7920    -1.6390 ho         1 GYA       0.208000
     68 C18          1.2830    -0.7390     5.0660 c2         1 GYA       0.274000
     69 O4          10.4740    -1.7010     5.9650 os         1 GYA      -0.178000
@<TRIPOS>BOND
     1     1    11 1   
     2     1    31 1   
     3     1    32 1   
     4     2    34 1   
     5     2    39 1   
     6     2    40 1   
     7     2    41 1   
     8     3     5 1   
     9     3    27 1   
    10     3    69 1   
    11     4    42 1   
    12     4    43 1   
    13     4    44 1   
    14     4    69 1   
    15     5     6 1   
    16     5    45 1   
    17     6    25 1   
    18     7    23 1   
    19     7    46 1   
    20     7    47 1   
    21     8     9 1   
    22     8    29 1   
    23     8    31 1   
    24     9    20 1   
    25     9    30 1   
    26     9    48 1   
    27    10    37 1   
    28    10    49 1   
    29    10    50 1   
    30    10    68 1   
    31    11    21 1   
    32    11    33 1   
    33    12    13 1   
    34    12    17 1   
    35    12    37 1   
    36    13    14 1   
    37    13    51 1   
    38    14    15 1   
    39    14    52 1   
    40    15    16 1   
    41    15    53 1   
    42    16    17 1   
    43    16    54 1   
    44    17    38 1   
    45    18    19 1   
    46    18    30 1   
    47    18    55 1   
    48    18    56 1   
    49    19    20 1   
    50    19    57 1   
    51    19    58 1   
    52    20    59 1   
    53    20    60 1   
    54    21    22 1   
    55    21    29 1   
    56    22    28 1   
    57    22    35 1   
    58    23    24 1   
    59    23    28 1   
    60    23    61 1   
    61    24    25 1   
    62    24    62 1   
    63    24    63 1   
    64    25    26 1   
    65    26    27 1   
    66    26    64 1   
    67    27    34 1   
    68    28    65 1   
    69    30    68 1   
    70    31    66 1   
    71    33    67 1   
    72    36    68 1   
@<TRIPOS>SUBSTRUCTURE
     1 GYA         1 TEMP              0 ****  ****    0 ROOT
