@<TRIPOS>MOLECULE
molecule
   46    49     1     0     0
SMALL
bcc


@<TRIPOS>ATOM
      1 CAH          0.0000     0.0000     0.0000 c3         1 GYB       0.120300
      2 NAI          1.4650     0.0000     0.0000 ns         1 GYB      -0.595900
      3 CAJ          2.1400     0.0000     1.1670 c          1 GYB       0.802100
      4 OAS          1.5310     0.0000     2.2210 o          1 GYB      -0.657100
      5 NAK          3.4870    -0.0010     1.1670 n          1 GYB      -0.286800
      6 NAL          4.1900     0.0040    -0.0470 n2         1 GYB      -0.465300
      7 CAB          4.2190    -0.0010     2.4280 c3         1 GYB       0.132700
      8 CAA          4.7630     1.4040     2.6960 c3         1 GYB      -0.104100
      9 CAC          5.3830    -0.9900     2.3760 c3         1 GYB      -0.055100
     10 CAD          4.9230    -2.2820     1.7440 ca         1 GYB      -0.044300
     11 CAE          4.7650    -3.4140     2.5110 ca         1 GYB      -0.109000
     12 CAF          4.3620    -4.6050     1.9250 ca         1 GYB       0.070100
     13 OAG          4.1350    -5.8430     2.4560 os         1 GYB      -0.319900
     14 CAR          4.1540    -6.7500     1.3390 c3         1 GYB       0.331200
     15 OAQ          3.7470    -5.9330     0.2260 os         1 GYB      -0.323900
     16 CAP          4.1190    -4.6590     0.5530 ca         1 GYB       0.041100
     17 CAO          4.2690    -3.5240    -0.2220 ca         1 GYB      -0.094000
     18 CAN          4.6650    -2.3240     0.3690 ca         1 GYB      -0.176900
     19 CAM          4.7810    -1.0890    -0.4550 ce         1 GYB       0.504500
     20 CAU          5.5560    -1.0950    -1.7160 ca         1 GYB      -0.148900
     21 CAV          5.6610     0.0700    -2.4780 ca         1 GYB      -0.059000
     22 CAY          6.3840     0.0610    -3.6520 ca         1 GYB      -0.047900
     23 Br1          6.5260     1.6380    -4.6860 br         1 GYB      -0.081100
     24 CAX          7.0090    -1.1080    -4.0770 ca         1 GYB       0.209600
     25 NBA          7.7410    -1.1140    -5.2650 nv         1 GYB      -0.988200
     26 CAW          6.9060    -2.2690    -3.3200 ca         1 GYB      -0.151000
     27 CAT          6.1890    -2.2650    -2.1420 ca         1 GYB      -0.091000
     28 H1          -0.3610    -0.0030    -1.0210 h1         1 GYB       0.040033
     29 H2          -0.3610    -0.8830     0.5130 h1         1 GYB       0.040033
     30 H3          -0.3610     0.8860     0.5080 h1         1 GYB       0.040033
     31 H4           1.9650     0.0290    -0.8670 hn         1 GYB       0.319500
     32 H6           3.5460    -0.2870     3.2280 h1         1 GYB       0.098700
     33 H7           5.6010     1.5970     2.0380 hc         1 GYB       0.045367
     34 H8           3.9840     2.1340     2.5120 hc         1 GYB       0.045367
     35 H9           5.0880     1.4750     3.7260 hc         1 GYB       0.045367
     36 H10          6.1860    -0.5670     1.7850 hc         1 GYB       0.064200
     37 H11          5.7330    -1.1870     3.3820 hc         1 GYB       0.064200
     38 H12          4.9610    -3.3760     3.5760 ha         1 GYB       0.151000
     39 H13          5.1550    -7.1340     1.1800 h2         1 GYB       0.071200
     40 H14          4.0250    -3.5540    -1.2770 ha         1 GYB       0.152000
     41 H16          5.2200     0.9920    -2.1200 ha         1 GYB       0.167000
     42 H17          8.7140    -0.8800    -5.2550 hn         1 GYB       0.437800
     43 H18          7.2950    -1.3640    -6.1260 hn         1 GYB       0.437800
     44 H19          7.3960    -3.1760    -3.6520 ha         1 GYB       0.147000
     45 H20          6.1100    -3.1700    -1.5520 ha         1 GYB       0.149000
     46 H5           3.4490    -7.5570     1.4940 h2         1 GYB       0.071200
@<TRIPOS>BOND
     1    25    24 1
     2    23    22 1
     3    24    22 ar
     4    24    26 ar
     5    22    21 ar
     6    26    27 ar
     7    21    20 ar
     8    27    20 ar
     9    20    19 1
    10     2     1 1
    11     2     3 1
    12    19     6 2
    13    19    18 1
    14     6     5 1
    15    17    18 ar
    16    17    16 ar
    17    18    10 ar
    18     3     5 1
    19     3     4 2
    20     5     7 1
    21    15    16 1
    22    15    14 1
    23    16    12 ar
    24    10     9 1
    25    10    11 ar
    26     7     9 1
    27     7     8 1
    28    14    13 1
    29    12    11 ar
    30    12    13 1
    31     1    28 1
    32     1    29 1
    33     1    30 1
    34     2    31 1
    35     7    32 1
    36     8    33 1
    37     8    34 1
    38     8    35 1
    39     9    36 1
    40     9    37 1
    41    11    38 1
    42    14    39 1
    43    17    40 1
    44    21    41 1
    45    25    42 1
    46    25    43 1
    47    26    44 1
    48    27    45 1
    49    14    46 1
@<TRIPOS>SUBSTRUCTURE
     1 GYB         1 TEMP              0 ****  ****    0 ROOT
