@<TRIPOS>MOLECULE
GYD
  100   100     1     0     0
SMALL
bcc


@<TRIPOS>ATOM
      1 N            0.0000     0.0000     0.0000 ns         1 GYD      -0.226900
      2 CA           1.4650     0.0000     0.0000 c3         1 GYD      -0.030300
      3 C            1.9670     0.0000     1.4210 c          1 GYD       0.540100
      4 O            1.1780    -0.0020     2.3430 o          1 GYD      -0.602100
      5 CB           1.9760    -1.2480    -0.7220 c3         1 GYD      -0.114400
      6 CG           1.4130    -2.4780    -0.0570 c          1 GYD       0.306100
      7 OD1          0.7510    -2.3730     0.9540 o          1 GYD      -0.373100
      8 ND2          1.6460    -3.6950    -0.5860 nz         1 GYD       0.174600
      9 CAB         -3.1730     0.4750    -4.7810 ca         1 GYD      -0.204000
     10 CAC         -2.7160    -0.0080    -3.5640 ca         1 GYD       0.163100
     11 CAI         -3.5930     1.7920    -4.8860 ca         1 GYD       0.174100
     12 CAJ         -2.6800     0.8270    -2.4570 ca         1 GYD      -0.138300
     13 CAK         -2.1760     0.3040    -1.1350 c3         1 GYD      -0.011100
     14 CAL         -0.6750     0.4110    -1.0920 c          1 GYD       0.572100
     15 CAQ          3.7800    -0.0000     3.0490 c3         1 GYD       0.046000
     16 CAR          5.3100     0.0000     3.0500 c3         1 GYD      -0.039400
     17 CAS          5.8190    -0.0010     4.4930 c3         1 GYD      -0.019400
     18 CAT          7.3490     0.0010     4.4940 c3         1 GYD      -0.028400
     19 CAU          7.8580    -0.0010     5.9360 c3         1 GYD       0.144800
     20 CAW          9.8530    -0.0010     7.3080 c3         1 GYD       0.146800
     21 CAX         11.3830     0.0000     7.2680 c3         1 GYD      -0.030400
     22 CAY         11.9310    -0.0010     8.6970 c3         1 GYD       0.145800
     23 CBB         15.4890     0.0000     9.9340 c3         1 GYD      -0.041400
     24 CBC         16.0750    -0.0010    11.3480 c3         1 GYD       0.034000
     25 CBE         18.2730    -0.0010    12.4000 c          1 GYD       0.531100
     26 CBF         19.7770     0.0010    12.3200 c3         1 GYD      -0.156500
     27 CBG         20.2720     1.4210    12.0440 c3         1 GYD      -0.050400
     28 CBH         21.7890     1.4020    11.8400 c3         1 GYD      -0.043400
     29 CBI         22.2840     2.8220    11.5640 c3         1 GYD       0.183800
     30 CBK         24.4090     3.9740    11.1040 c2         1 GYD       0.240100
     31 CBM         -3.5600     2.6220    -3.7750 ca         1 GYD      -0.151000
     32 CBN         -3.0980     2.1400    -2.5650 ca         1 GYD      -0.033000
     33 NAG         25.7000     3.9580    10.9300 n2         1 GYD      -0.542100
     34 NAP          3.2910     0.0000     1.6680 ns         1 GYD      -0.195900
     35 NAV          9.3270    -0.0000     5.9370 n7         1 GYD      -0.585200
     36 NAZ         13.3990    -0.0000     8.6590 n7         1 GYD      -0.584200
     37 NBD         17.5380     0.0000    11.2710 ns         1 GYD      -0.099900
     38 NBJ         23.7360     2.8050    11.3680 nu         1 GYD      -0.523200
     39 NBL         23.7200     5.1610    11.0240 nz         1 GYD       0.191400
     40 NBP         20.3350    -0.4750    13.5940 nz         1 GYD       0.093400
     41 OAD         -0.0710     0.8660    -2.0410 o          1 GYD      -0.622100
     42 OAF         17.7220    -0.0020    13.4810 o          1 GYD      -0.622100
     43 H1          -0.5000    -0.2700     0.8240 hn         1 GYD       0.220500
     44 H2           1.8260     0.8850    -0.5100 h1         1 GYD       0.092700
     45 H3           3.0580    -1.2750    -0.6750 hc         1 GYD       0.070200
     46 H4           1.6600    -1.2210    -1.7580 hc         1 GYD       0.070200
     47 H5           1.0890    -4.2160     0.0630 hn         1 GYD       0.255467
     48 H6           1.3030    -3.7710    -1.5230 hn         1 GYD       0.255467
     49 H7          -3.2010    -0.1740    -5.6470 ha         1 GYD       0.126000
     50 H8          -2.4680    -0.7330    -1.0230 hc         1 GYD       0.035700
     51 H9          -2.6030     0.8890    -0.3290 hc         1 GYD       0.035700
     52 H10          3.4180     0.8840     3.5610 h1         1 GYD       0.035200
     53 H11          3.4180    -0.8850     3.5600 h1         1 GYD       0.035200
     54 H12          5.6710     0.8850     2.5410 hc         1 GYD       0.016200
     55 H13          5.6710    -0.8840     2.5390 hc         1 GYD       0.016200
     56 H14          5.4560     0.8820     5.0040 hc         1 GYD       0.022200
     57 H15          5.4580    -0.8870     5.0020 hc         1 GYD       0.022200
     58 H16          7.7100     0.8860     3.9840 hc         1 GYD       0.020200
     59 H17          7.7110    -0.8830     3.9820 hc         1 GYD       0.020200
     60 H18          7.4970    -0.8860     6.4460 h1         1 GYD       0.010200
     61 H19          7.4960     0.8830     6.4470 h1         1 GYD       0.010200
     62 H20          9.5050     0.8830     7.8290 h1         1 GYD       0.009200
     63 H21          9.5060    -0.8860     7.8280 h1         1 GYD       0.009200
     64 H22         11.7310    -0.8830     6.7470 hc         1 GYD       0.024700
     65 H23         11.7300     0.8860     6.7490 hc         1 GYD       0.024700
     66 H24         11.5830    -0.8860     9.2160 h1         1 GYD       0.011700
     67 H25         11.5820     0.8830     9.2170 h1         1 GYD       0.011700
     68 H26         13.6290    -0.8870    10.5440 h1         1 GYD       0.015200
     69 H27         13.6270     0.8820    10.5460 h1         1 GYD       0.015200
     70 H28         15.8220     0.8860     9.4060 hc         1 GYD       0.024700
     71 H29         15.8230    -0.8830     9.4040 hc         1 GYD       0.024700
     72 H30         15.7420    -0.8870    11.8760 h1         1 GYD       0.047200
     73 H31         15.7410     0.8820    11.8780 h1         1 GYD       0.047200
     74 H32         20.0970    -0.6550    11.5190 hx         1 GYD       0.096700
     75 H33         19.7920     1.8040    11.1520 hc         1 GYD       0.058200
     76 H34         20.0300     2.0580    12.8860 hc         1 GYD       0.058200
     77 H35         21.7120     0.5890    11.1280 hc         1 GYD       0.031200
     78 H36         22.2640     1.0350    12.7420 hc         1 GYD       0.031200
     79 H37         22.0410     3.4590    12.4060 h1         1 GYD       0.021200
     80 H38         21.8040     3.2050    10.6710 h1         1 GYD       0.021200
     81 H39         -3.8880     3.6510    -3.8590 ha         1 GYD       0.125000
     82 H40         -3.0710     2.7890    -1.6990 ha         1 GYD       0.108000
     83 H41         26.2040     3.0950    10.9870 hn         1 GYD       0.381400
     84 H42          3.9420     0.0350     0.9080 hn         1 GYD       0.172500
     85 H43          9.6610    -0.8090     5.4510 hn         1 GYD       0.252800
     86 H45         13.7200     0.8090     8.1650 hn         1 GYD       0.253800
     87 H47         17.9910    -0.0220    10.3790 hn         1 GYD       0.177500
     88 H48         24.2330     1.9360    11.3910 hn         1 GYD       0.343800
     89 H49         23.2090     5.3080    11.8720 hn         1 GYD       0.228467
     90 H50         24.3660     5.9130    10.8890 hn         1 GYD       0.228467
     91 H51         20.2530     0.2450    14.2840 hn         1 GYD       0.234800
     92 H52         19.8320    -1.2860    13.8960 hn         1 GYD       0.234800
     93 H54         -2.9660    -1.8710    -3.8090 ho         1 GYD       0.408000
     94 H55         -4.9670     2.1400    -6.1440 ho         1 GYD       0.412000
     95 OAA         -2.3040    -1.2990    -3.4560 oh         1 GYD      -0.519100
     96 CBA         13.9610    -0.0010    10.0160 c3         1 GYD       0.154800
     97 HD23         2.6140    -3.9450    -0.5460 hn         1 GYD       0.255467
     98 HBL3        23.0850     5.1270    10.2510 hn         1 GYD       0.228467
     99 HBP3        21.3000    -0.7090    13.4690 hn         1 GYD       0.234800
    100 OAH         -4.0360     2.2700    -6.0790 oh         1 GYD      -0.495100
@<TRIPOS>BOND
     1     1     2 1   
     2     1    14 1   
     3     1    43 1   
     4     2     3 1   
     5     2     5 1   
     6     2    44 1   
     7     3     4 2   
     8     3    34 1   
     9     5     6 1   
    10     5    45 1   
    11     5    46 1   
    12     6     7 2   
    13     6     8 1   
    14     8    47 1   
    15     8    48 1   
    16     8    97 1   
    17     9    10 ar  
    18     9    11 ar  
    19     9    49 1   
    20    10    12 ar  
    21    10    95 1   
    22    11    31 ar  
    23    11   100 1   
    24    12    13 1   
    25    12    32 ar  
    26    13    14 1   
    27    13    50 1   
    28    13    51 1   
    29    14    41 2   
    30    15    16 1   
    31    15    34 1   
    32    15    52 1   
    33    15    53 1   
    34    16    17 1   
    35    16    54 1   
    36    16    55 1   
    37    17    18 1   
    38    17    56 1   
    39    17    57 1   
    40    18    19 1   
    41    18    58 1   
    42    18    59 1   
    43    19    35 1   
    44    19    60 1   
    45    19    61 1   
    46    20    21 1   
    47    20    35 1   
    48    20    62 1   
    49    20    63 1   
    50    21    22 1   
    51    21    64 1   
    52    21    65 1   
    53    22    36 1   
    54    22    66 1   
    55    22    67 1   
    56    23    24 1   
    57    23    70 1   
    58    23    71 1   
    59    23    96 1   
    60    24    37 1   
    61    24    72 1   
    62    24    73 1   
    63    25    26 1   
    64    25    37 1   
    65    25    42 2   
    66    26    27 1   
    67    26    40 1   
    68    26    74 1   
    69    27    28 1   
    70    27    75 1   
    71    27    76 1   
    72    28    29 1   
    73    28    77 1   
    74    28    78 1   
    75    29    38 1   
    76    29    79 1   
    77    29    80 1   
    78    30    33 2   
    79    30    38 1   
    80    30    39 1   
    81    31    32 ar  
    82    31    81 1   
    83    32    82 1   
    84    33    83 1   
    85    34    84 1   
    86    35    85 1   
    87    36    86 1   
    88    36    96 1   
    89    37    87 1   
    90    38    88 1   
    91    39    89 1   
    92    39    90 1   
    93    39    98 1   
    94    40    91 1   
    95    40    92 1   
    96    40    99 1   
    97    68    96 1   
    98    69    96 1   
    99    93    95 1   
   100    94   100 1   
@<TRIPOS>SUBSTRUCTURE
     1 GYD         1 TEMP              0 ****  ****    0 ROOT
