@<TRIPOS>MOLECULE
molecule
  100   100     1     0     0
SMALL
bcc


@<TRIPOS>ATOM
      1 N            0.0000     0.0000     0.0000 ns         1 GYD      -0.593900
      2 CA           1.4650     0.0000     0.0000 c3         1 GYD       0.057700
      3 C            1.9670     0.0000     1.4210 c          1 GYD       0.631100
      4 O            1.1780    -0.0020     2.3430 o          1 GYD      -0.563100
      5 CB           1.9760    -1.2480    -0.7220 c3         1 GYD      -0.180400
      6 CG           1.4130    -2.4780    -0.0570 c          1 GYD       0.476100
      7 OD1          0.7510    -2.3730     0.9540 o          1 GYD      -0.379100
      8 ND2          1.6460    -3.6950    -0.5860 nz         1 GYD      -0.694400
      9 CAB         -3.1730     0.4750    -4.7810 ca         1 GYD      -0.209000
     10 CAC         -2.7160    -0.0080    -3.5640 ca         1 GYD       0.140100
     11 CAI         -3.5930     1.7920    -4.8860 ca         1 GYD       0.151100
     12 CAJ         -2.6800     0.8270    -2.4570 ca         1 GYD      -0.114300
     13 CAK         -2.1760     0.3040    -1.1350 c3         1 GYD      -0.087100
     14 CAL         -0.6750     0.4110    -1.0920 c          1 GYD       0.656100
     15 CAQ          3.7800    -0.0000     3.0490 c3         1 GYD       0.108000
     16 CAR          5.3100     0.0000     3.0500 c3         1 GYD      -0.100400
     17 CAS          5.8190    -0.0010     4.4930 c3         1 GYD      -0.078400
     18 CAT          7.3490     0.0010     4.4940 c3         1 GYD      -0.082400
     19 CAU          7.8580    -0.0010     5.9360 c3         1 GYD       0.157800
     20 CAW          9.8530    -0.0010     7.3080 c3         1 GYD       0.157800
     21 CAX         11.3830     0.0000     7.2680 c3         1 GYD      -0.083400
     22 CAY         11.9310    -0.0010     8.6970 c3         1 GYD       0.156800
     23 CBB         15.4890     0.0000     9.9340 c3         1 GYD      -0.104400
     24 CBC         16.0750    -0.0010    11.3480 c3         1 GYD       0.102000
     25 CBE         18.2730    -0.0010    12.4000 c          1 GYD       0.629100
     26 CBF         19.7770     0.0010    12.3200 c3         1 GYD       0.022500
     27 CBG         20.2720     1.4210    12.0440 c3         1 GYD      -0.122400
     28 CBH         21.7890     1.4020    11.8400 c3         1 GYD      -0.106400
     29 CBI         22.2840     2.8220    11.5640 c3         1 GYD       0.239800
     30 CBK         24.4090     3.9740    11.1040 c2         1 GYD       0.690100
     31 CBM         -3.5600     2.6220    -3.7750 ca         1 GYD      -0.163000
     32 CBN         -3.0980     2.1400    -2.5650 ca         1 GYD      -0.071000
     33 NAG         25.7000     3.9580    10.9300 n2         1 GYD      -0.739100
     34 NAP          3.2910     0.0000     1.6680 ns         1 GYD      -0.588900
     35 NAV          9.3270    -0.0000     5.9370 n7         1 GYD      -0.819200
     36 NAZ         13.3990    -0.0000     8.6590 n7         1 GYD      -0.818200
     37 NBD         17.5380     0.0000    11.2710 ns         1 GYD      -0.536900
     38 NBJ         23.7360     2.8050    11.3680 nu         1 GYD      -0.875200
     39 NBL         23.7200     5.1610    11.0240 nz         1 GYD      -0.806600
     40 NBP         20.3350    -0.4750    13.5940 nz         1 GYD      -0.796600
     41 OAD         -0.0710     0.8660    -2.0410 o          1 GYD      -0.589100
     42 OAF         17.7220    -0.0020    13.4810 o          1 GYD      -0.575100
     43 H1          -0.5000    -0.3110     0.8090 hn         1 GYD       0.351500
     44 H2           1.8260     0.8850    -0.5100 h1         1 GYD       0.128700
     45 H3           1.6600    -1.2210    -1.7580 hc         1 GYD       0.105700
     46 H4           3.0580    -1.2750    -0.6750 hc         1 GYD       0.105700
     47 H5           1.0890    -4.2160     0.0630 hn         1 GYD       0.484467
     48 H6           2.6130    -3.9480    -0.5400 hn         1 GYD       0.484467
     49 H7          -3.2010    -0.1740    -5.6470 ha         1 GYD       0.151000
     50 H8          -2.6030     0.8890    -0.3290 hc         1 GYD       0.075700
     51 H9          -2.4680    -0.7330    -1.0230 hc         1 GYD       0.075700
     52 H10          3.4180     0.8840     3.5610 h1         1 GYD       0.063700
     53 H11          3.4180    -0.8850     3.5600 h1         1 GYD       0.063700
     54 H12          5.6710     0.8850     2.5410 hc         1 GYD       0.046200
     55 H13          5.6710    -0.8840     2.5390 hc         1 GYD       0.046200
     56 H14          5.4580    -0.8870     5.0020 hc         1 GYD       0.051200
     57 H15          5.4560     0.8820     5.0040 hc         1 GYD       0.051200
     58 H16          7.7090     0.8860     3.9840 hc         1 GYD       0.049700
     59 H17          7.7110    -0.8830     3.9820 hc         1 GYD       0.049700
     60 H18          7.4970    -0.8860     6.4460 h1         1 GYD       0.036700
     61 H19          7.4960     0.8830     6.4470 h1         1 GYD       0.036700
     62 H20          9.5060    -0.8860     7.8280 h1         1 GYD       0.035200
     63 H21          9.5050     0.8830     7.8290 h1         1 GYD       0.035200
     64 H22         11.7300     0.8860     6.7490 hc         1 GYD       0.056700
     65 H23         11.7310    -0.8830     6.7470 hc         1 GYD       0.056700
     66 H24         11.5820     0.8830     9.2170 h1         1 GYD       0.038700
     67 H25         11.5830    -0.8860     9.2160 h1         1 GYD       0.038700
     68 H26         13.6270     0.8820    10.5460 h1         1 GYD       0.042700
     69 H27         13.6290    -0.8870    10.5440 h1         1 GYD       0.042700
     70 H28         15.8230    -0.8830     9.4040 hc         1 GYD       0.056700
     71 H29         15.8220     0.8860     9.4060 hc         1 GYD       0.056700
     72 H30         15.7410     0.8820    11.8780 h1         1 GYD       0.075700
     73 H31         15.7420    -0.8870    11.8760 h1         1 GYD       0.075700
     74 H32         20.0970    -0.6550    11.5190 hx         1 GYD       0.124700
     75 H33         20.0300     2.0580    12.8860 hc         1 GYD       0.093200
     76 H34         19.7920     1.8040    11.1520 hc         1 GYD       0.093200
     77 H35         21.7120     0.5890    11.1270 hc         1 GYD       0.065200
     78 H36         22.2640     1.0350    12.7420 hc         1 GYD       0.065200
     79 H37         21.8040     3.2050    10.6710 h1         1 GYD       0.050700
     80 H38         22.0410     3.4590    12.4060 h1         1 GYD       0.050700
     81 H39         -3.8880     3.6510    -3.8590 ha         1 GYD       0.155000
     82 H40         -3.0710     2.7890    -1.6990 ha         1 GYD       0.142000
     83 H41         26.1920     4.8080    10.7370 hn         1 GYD       0.460400
     84 H42          3.9420     0.0020     0.9080 hn         1 GYD       0.309500
     85 H43          9.6610    -0.8090     5.4510 hn         1 GYD       0.352800
     86 H45         13.7200     0.8090     8.1650 hn         1 GYD       0.353800
     87 H47         17.9910     0.0010    10.3790 hn         1 GYD       0.325500
     88 H48         24.2400     1.9410    11.4250 hn         1 GYD       0.512800
     89 H49         23.0390     5.1050    10.2930 hn         1 GYD       0.471467
     90 H50         23.2600     5.3410    11.8950 hn         1 GYD       0.471467
     91 H51         19.8450    -1.2970    13.8860 hn         1 GYD       0.468467
     92 H52         21.3050    -0.6890    13.4730 hn         1 GYD       0.468467
     93 H54         -2.9540    -1.8690    -3.8340 ho         1 GYD       0.428000
     94 H55         -3.3160     2.6560    -6.5500 ho         1 GYD       0.431000
     95 OAA         -2.3040    -1.2990    -3.4560 oh         1 GYD      -0.538100
     96 CBA         13.9610    -0.0010    10.0160 c3         1 GYD       0.165800
     97 HD23         1.3110    -3.7680    -1.5260 hn         1 GYD       0.484467
     98 HBL3        24.3590     5.9060    10.8300 hn         1 GYD       0.471467
     99 HBP3        20.2350     0.2380    14.2890 hn         1 GYD       0.468467
    100 OAH         -4.0360     2.2700    -6.0790 oh         1 GYD      -0.514100
@<TRIPOS>BOND
     1    33    30 2
     2    39    30 1
     3    30    38 1
     4    38    29 1
     5    29    28 1
     6    28    27 1
     7    27    26 1
     8    26    40 1
     9    26    25 1
    10    42    25 2
    11    25    37 1
    12    37    24 1
    13    24    23 1
    14    23    96 1
    15    96    36 1
    16    36    22 1
    17    22    21 1
    18    21    20 1
    19    20    35 1
    20    35    19 1
    21    19    18 1
    22    18    17 1
    23    17    16 1
    24    16    15 1
    25    15    34 1
    26    34     3 1
    27     4     3 2
    28     3     2 1
    29     5     2 1
    30     5     6 1
    31     2     1 1
    32     1    14 1
    33     6     7 2
    34     6     8 1
    35    14    41 2
    36    14    13 1
    37    13    12 1
    38    12    32 ar
    39    12    10 ar
    40    95    10 1
    41    32    31 ar
    42    10     9 ar
    43    31    11 ar
    44     9    11 ar
    45    11   100 1
    46     1    43 1
    47     2    44 1
    48     5    45 1
    49     5    46 1
    50     8    47 1
    51     8    48 1
    52     9    49 1
    53    13    50 1
    54    13    51 1
    55    15    52 1
    56    15    53 1
    57    16    54 1
    58    16    55 1
    59    17    56 1
    60    17    57 1
    61    18    58 1
    62    18    59 1
    63    19    60 1
    64    19    61 1
    65    20    62 1
    66    20    63 1
    67    21    64 1
    68    21    65 1
    69    22    66 1
    70    22    67 1
    71    96    68 1
    72    96    69 1
    73    23    70 1
    74    23    71 1
    75    24    72 1
    76    24    73 1
    77    26    74 1
    78    27    75 1
    79    27    76 1
    80    28    77 1
    81    28    78 1
    82    29    79 1
    83    29    80 1
    84    31    81 1
    85    32    82 1
    86    33    83 1
    87    34    84 1
    88    35    85 1
    89    36    86 1
    90    37    87 1
    91    38    88 1
    92    39    89 1
    93    39    90 1
    94    40    91 1
    95    40    92 1
    96    95    93 1
    97   100    94 1
    98    97     8 1
    99    98    39 1
   100    99    40 1
@<TRIPOS>SUBSTRUCTURE
     1 GYD         1 TEMP              0 ****  ****    0 ROOT
