@<TRIPOS>MOLECULE
GYK
   46    49     1     0     0
SMALL
bcc


@<TRIPOS>ATOM
      1 C01          0.0000     0.0000     0.0000 c3         1 GYK      -0.012100
      2 C02          1.5300     0.0000     0.0000 c3         1 GYK       0.036700
      3 C03          2.0340     0.0000     1.4430 c3         1 GYK       0.007900
      4 C04          3.4940     0.3830     1.4710 ca         1 GYK      -0.051300
      5 C05          4.4550    -0.5600     1.7600 ca         1 GYK      -0.081000
      6 C06          5.7940    -0.2000     1.8100 ca         1 GYK       0.080100
      7 C07          6.1710     1.1200     1.5650 ca         1 GYK       0.047100
      8 C08          5.2120     2.0690     1.2640 ca         1 GYK      -0.066000
      9 C09          3.8650     1.7060     1.2080 ca         1 GYK      -0.188900
     10 C10          2.8420     2.7130     0.8500 ce         1 GYK       0.540500
     11 N11          1.9740     2.4330    -0.0880 n2         1 GYK      -0.557300
     12 N12          2.0110     1.1790    -0.7120 n          1 GYK       0.036200
     13 C13          2.4890     1.0610    -1.9660 c          1 GYK       0.605100
     14 O14          2.5200    -0.0280    -2.5050 o          1 GYK      -0.709100
     15 N15          2.9320     2.1520    -2.6230 ns         1 GYK      -0.213900
     16 C16          3.4520     2.0240    -3.9860 c3         1 GYK       0.100300
     17 C17          2.8000     4.0190     1.5450 ca         1 GYK      -0.162900
     18 C18          1.8320     4.9630     1.2010 ca         1 GYK      -0.066500
     19 C19          1.7950     6.1780     1.8500 ca         1 GYK      -0.124500
     20 C20          2.7220     6.4640     2.8470 ca         1 GYK       0.053600
     21 C21          3.6880     5.5250     3.1910 ca         1 GYK      -0.124500
     22 C22          3.7260     4.3060     2.5500 ca         1 GYK      -0.066500
     23 N23          2.6860     7.6980     3.4980 nv         1 GYK      -0.564200
     24 O24          7.5280     1.2150     1.6830 os         1 GYK      -0.311900
     25 C25          8.0160    -0.1370     1.5880 c3         1 GYK       0.432200
     26 O26          6.9170    -0.9320     2.0700 os         1 GYK      -0.309900
     27 H1          -0.3610     0.2560    -0.9890 hc         1 GYK       0.012033
     28 H2          -0.3610     0.7280     0.7160 hc         1 GYK       0.012033
     29 H3          -0.3610    -0.9840     0.2730 hc         1 GYK       0.012033
     30 H4           1.8910    -0.8900    -0.5020 h1         1 GYK       0.073700
     31 H5           1.4640     0.7160     2.0230 hc         1 GYK       0.033200
     32 H6           1.9150    -0.9900     1.8650 hc         1 GYK       0.033200
     33 H7           4.1640    -1.5850     1.9570 ha         1 GYK       0.122000
     34 H8           5.5100     3.0810     1.0210 ha         1 GYK       0.125000
     35 H11          2.8690     3.0540    -2.1950 hn         1 GYK       0.179500
     36 H12          4.3000     1.3500    -3.9880 h1         1 GYK       0.006033
     37 H13          3.7630     2.9960    -4.3470 h1         1 GYK       0.006033
     38 H14          2.6760     1.6300    -4.6320 h1         1 GYK       0.006033
     39 H15          1.1100     4.7410     0.4250 ha         1 GYK       0.123000
     40 H16          1.0430     6.9110     1.5840 ha         1 GYK       0.112000
     41 H17          4.4080     5.7500     3.9700 ha         1 GYK       0.112000
     42 H18          4.4790     3.5750     2.8180 ha         1 GYK       0.123000
     43 H19          3.2050     8.4720     3.1330 hn         1 GYK       0.275800
     44 H20          2.1320     7.8120     4.3240 hn         1 GYK       0.275800
     45 H21          8.2430    -0.3870     0.5590 h2         1 GYK       0.015200
     46 H9           8.8860    -0.2700     2.2200 h2         1 GYK       0.015200
@<TRIPOS>BOND
     1     1     2 1   
     2     1    27 1   
     3     1    28 1   
     4     1    29 1   
     5     2     3 1   
     6     2    12 1   
     7     2    30 1   
     8     3     4 1   
     9     3    31 1   
    10     3    32 1   
    11     4     5 ar  
    12     4     9 ar  
    13     5     6 ar  
    14     5    33 1   
    15     6     7 ar  
    16     6    26 1   
    17     7     8 ar  
    18     7    24 1   
    19     8     9 ar  
    20     8    34 1   
    21     9    10 1   
    22    10    11 2   
    23    10    17 1   
    24    11    12 1   
    25    12    13 1   
    26    13    14 2   
    27    13    15 1   
    28    15    16 1   
    29    15    35 1   
    30    16    36 1   
    31    16    37 1   
    32    16    38 1   
    33    17    18 ar  
    34    17    22 ar  
    35    18    19 ar  
    36    18    39 1   
    37    19    20 ar  
    38    19    40 1   
    39    20    21 ar  
    40    20    23 1   
    41    21    22 ar  
    42    21    41 1   
    43    22    42 1   
    44    23    43 1   
    45    23    44 1   
    46    24    25 1   
    47    25    26 1   
    48    25    45 1   
    49    25    46 1   
@<TRIPOS>SUBSTRUCTURE
     1 GYK         1 TEMP              0 ****  ****    0 ROOT
