@<TRIPOS>MOLECULE
molecule
   43    45     1     0     0
SMALL
bcc


@<TRIPOS>ATOM
      1 C1           0.0000     0.0000     0.0000 ca         1 GYL       0.067400
      2 C2           1.3830     0.0000     0.0000 ca         1 GYL      -0.154300
      3 C3           2.0740     0.0000     1.2000 ca         1 GYL       0.161900
      4 C4           1.3800    -0.0000     2.3980 ca         1 GYL      -0.169000
      5 C5          -0.0020    -0.0000     2.3960 ca         1 GYL      -0.082000
      6 C6          -0.6920     0.0070     1.1980 ca         1 GYL      -0.139000
      7 C37          6.1050     1.7280   -11.2780 c3         1 GYL      -0.077100
      8 C38          6.6630     3.0000   -10.6370 c3         1 GYL      -0.160400
      9 C33          5.9890     3.2310    -9.3100 c          1 GYL       0.654100
     10 O35          5.1460     2.4550    -8.9140 o          1 GYL      -0.584100
     11 C24          5.6330     4.5700    -7.3750 ca         1 GYL       0.045600
     12 C25          5.1820     3.5240    -6.5830 ca         1 GYL      -0.098000
     13 C23          5.4030     5.8840    -6.9890 ca         1 GYL      -0.158000
     14 C28          4.7190     6.1540    -5.8180 ca         1 GYL      -0.123000
     15 C27          4.2640     5.1190    -5.0260 ca         1 GYL      -0.108000
     16 C26          4.4950     3.7980    -5.4040 ca         1 GYL      -0.093500
     17 C19          4.0100     2.6840    -4.5510 cc         1 GYL       0.655500
     18 N18          3.3380     2.8200    -3.3980 nc         1 GYL      -0.816000
     19 N20          4.1620     1.4050    -4.8060 nd         1 GYL      -0.541800
     20 N21          3.5530     0.7030    -3.7530 na         1 GYL      -0.213400
     21 C17          3.0620     1.6330    -2.9050 cd         1 GYL       0.721400
     22 N15          2.3820     1.3810    -1.7280 nu         1 GYL      -0.914900
     23 C8           2.1370    -0.0010    -1.3050 c3         1 GYL       0.285100
     24 Cl7         -0.8680     0.0010    -1.5040 cl         1 GYL      -0.080400
     25 F9           3.4250    -0.0010     1.2020 f          1 GYL      -0.127900
     26 H1           1.9210    -0.0030     3.3370 ha         1 GYL       0.154000
     27 H2          -0.5450     0.0020     3.3330 ha         1 GYL       0.148000
     28 H3          -1.7750     0.0060     1.1970 ha         1 GYL       0.153000
     29 H4           5.0290     1.8120   -11.3690 hc         1 GYL       0.045367
     30 H5           6.5410     1.5980   -12.2610 hc         1 GYL       0.045367
     31 H6           6.3500     0.8740   -10.6580 hc         1 GYL       0.045367
     32 H7           6.4760     3.8440   -11.2890 hc         1 GYL       0.058700
     33 H8           7.7300     2.8900   -10.4870 hc         1 GYL       0.058700
     34 H9           6.9900     4.9630    -8.9110 hn         1 GYL       0.320500
     35 H10          5.3640     2.4990    -6.8800 ha         1 GYL       0.182000
     36 H11          5.7580     6.7000    -7.6070 ha         1 GYL       0.125000
     37 H12          4.5400     7.1800    -5.5220 ha         1 GYL       0.132000
     38 H13          3.7290     5.3350    -4.1090 ha         1 GYL       0.153000
     39 H15          1.5520    -0.5110    -2.0600 h1         1 GYL       0.054700
     40 H14          3.4970    -0.2910    -3.6490 hn         1 GYL       0.324700
     41 H16          2.1000     2.1400    -1.1400 hn         1 GYL       0.472800
     42 H17          3.0840    -0.5110    -1.1750 h1         1 GYL       0.054700
     43 N34          6.3260     4.3010    -8.5610 ns         1 GYL      -0.478100
@<TRIPOS>BOND
     1    25     3 1
     2     4     3 ar
     3     4     5 ar
     4     3     2 ar
     5     7     8 1
     6    20    19 1
     7    20    21 1
     8    22    21 1
     9    22    23 1
    10     5     6 ar
    11    19    17 2
    12    21    18 2
    13     2    23 1
    14     2     1 ar
    15    17    18 1
    16    17    16 1
    17    12    16 ar
    18    12    11 ar
    19     8     9 1
    20    43    11 1
    21    43     9 1
    22    16    15 ar
    23    11    13 ar
    24     9    10 2
    25    15    14 ar
    26    13    14 ar
    27     6     1 ar
    28     1    24 1
    29     4    26 1
    30     5    27 1
    31     6    28 1
    32     7    29 1
    33     7    30 1
    34     7    31 1
    35     8    32 1
    36     8    33 1
    37    43    34 1
    38    12    35 1
    39    13    36 1
    40    14    37 1
    41    15    38 1
    42    23    39 1
    43    20    40 1
    44    22    41 1
    45    23    42 1
@<TRIPOS>SUBSTRUCTURE
     1 GYL         1 TEMP              0 ****  ****    0 ROOT
