@<TRIPOS>MOLECULE
GYM
   55    54     1     0     0
SMALL
bcc


@<TRIPOS>ATOM
      1 O21         0.3300   -1.4680    0.6030 oh        1 GYM     -0.611800
      2 C20         1.6830   -1.0870    0.4120 c3        1 GYM      0.092400
      3 C18         2.0520   -0.2250    1.6250 c3        1 GYM      0.140100
      4 O19         1.2140    0.9190    1.6940 oh        1 GYM     -0.599800
      5 C17         3.4850    0.2940    1.4910 c3        1 GYM      0.138400
      6 O2          4.1180    0.0220    2.7520 os        1 GYM     -0.444900
      7 C1          5.3950    0.4890    2.9090 c         1 GYM      0.634100
      8 O1          5.9280    1.0600    1.9550 o         1 GYM     -0.542000
      9 C2          5.9380    0.2230    4.2780 c3        1 GYM     -0.127400
     10 C3          7.4210   -0.0800    4.2270 c3        1 GYM     -0.079400
     11 C4          7.9910   -0.2080    5.6230 c3        1 GYM     -0.078400
     12 C5          9.4700   -0.5290    5.5790 c3        1 GYM     -0.079400
     13 C6         10.0450   -0.6540    6.9730 c3        1 GYM     -0.079400
     14 C7         11.5240   -0.9750    6.9300 c3        1 GYM     -0.079400
     15 C8         12.1000   -1.0990    8.3240 c3        1 GYM     -0.079400
     16 C9         13.5790   -1.4190    8.2810 c3        1 GYM     -0.079400
     17 C10        14.1540   -1.5440    9.6760 c3        1 GYM     -0.079400
     18 C11        15.6330   -1.8630    9.6330 c3        1 GYM     -0.079400
     19 C12        16.2090   -1.9880   11.0270 c3        1 GYM     -0.079400
     20 C13        17.6890   -2.3070   10.9850 c3        1 GYM     -0.080400
     21 C14        18.2670   -2.4320   12.3710 c3        1 GYM     -0.092100
     22 H21         0.0560   -1.9340   -0.1960 ho        1 GYM      0.410000
     23 H17         4.0500   -0.2410    0.6860 h1        1 GYM      0.068200
     24 H71         3.5010    1.3990    1.2980 h1        1 GYM      0.068200
     25 H18         1.9370   -0.8320    2.5670 h1        1 GYM      0.069700
     26 H19         0.3040    0.5920    1.7090 ho        1 GYM      0.421000
     27 H20         1.7900   -0.4950   -0.5350 h1        1 GYM      0.037700
     28 H22         2.3380   -1.9960    0.3670 h1        1 GYM      0.037700
     29 H23         5.3770   -0.6270    4.7480 hc        1 GYM      0.079200
     30 H24         5.7480    1.1420    4.8970 hc        1 GYM      0.079200
     31 H33         7.5910   -1.0320    3.6580 hc        1 GYM      0.057200
     32 H34         7.9500    0.7380    3.6680 hc        1 GYM      0.057200
     33 H43         7.8310    0.7490    6.1860 hc        1 GYM      0.041200
     34 H44         7.4470   -1.0160    6.1800 hc        1 GYM      0.041200
     35 H53         9.6300   -1.4880    5.0180 hc        1 GYM      0.042700
     36 H54        10.0130    0.2770    5.0180 hc        1 GYM      0.042700
     37 H63         9.5020   -1.4600    7.5340 hc        1 GYM      0.040200
     38 H64         9.8840    0.3040    7.5340 hc        1 GYM      0.040200
     39 H73        11.6850   -1.9330    6.3690 hc        1 GYM      0.040200
     40 H74        12.0670   -0.1690    6.3700 hc        1 GYM      0.040200
     41 H83        11.9380   -0.1410    8.8850 hc        1 GYM      0.039700
     42 H84        11.5570   -1.9060    8.8850 hc        1 GYM      0.039700
     43 H93        13.7400   -2.3770    7.7200 hc        1 GYM      0.039700
     44 H94        14.1210   -0.6120    7.7210 hc        1 GYM      0.039700
     45 HA1        13.6120   -2.3510   10.2360 hc        1 GYM      0.039700
     46 HA2        13.9920   -0.5860   10.2370 hc        1 GYM      0.039700
     47 HA3        16.1760   -1.0560    9.0730 hc        1 GYM      0.039700
     48 HA4        15.7950   -2.8210    9.0720 hc        1 GYM      0.039700
     49 HA5        15.6670   -2.7950   11.5870 hc        1 GYM      0.039700
     50 HA6        16.0470   -1.0300   11.5880 hc        1 GYM      0.039700
     51 HA7        18.2290   -1.5000   10.4230 hc        1 GYM      0.038700
     52 HA8        17.8490   -3.2650   10.4220 hc        1 GYM      0.038700
     53 H40        19.3570   -2.6680   12.3180 hc        1 GYM      0.032700
     54 H41        17.7570   -3.2480   12.9390 hc        1 GYM      0.032700
     55 H42        18.1390   -1.4790   12.9390 hc        1 GYM      0.032700
@<TRIPOS>BOND
     1    1    2 1   
     2    1   22 1   
     3    2    3 1   
     4    2   27 1   
     5    2   28 1   
     6    3    4 1   
     7    3    5 1   
     8    3   25 1   
     9    4   26 1   
    10    5    6 1   
    11    5   23 1   
    12    5   24 1   
    13    6    7 1   
    14    7    8 2   
    15    7    9 1   
    16    9   10 1   
    17    9   29 1   
    18    9   30 1   
    19   10   11 1   
    20   10   31 1   
    21   10   32 1   
    22   11   12 1   
    23   11   33 1   
    24   11   34 1   
    25   12   13 1   
    26   12   35 1   
    27   12   36 1   
    28   13   14 1   
    29   13   37 1   
    30   13   38 1   
    31   14   15 1   
    32   14   39 1   
    33   14   40 1   
    34   15   16 1   
    35   15   41 1   
    36   15   42 1   
    37   16   17 1   
    38   16   43 1   
    39   16   44 1   
    40   17   18 1   
    41   17   45 1   
    42   17   46 1   
    43   18   19 1   
    44   18   47 1   
    45   18   48 1   
    46   19   20 1   
    47   19   49 1   
    48   19   50 1   
    49   20   21 1   
    50   20   51 1   
    51   20   52 1   
    52   21   53 1   
    53   21   54 1   
    54   21   55 1   
@<TRIPOS>SUBSTRUCTURE
     1 GYM         1 TEMP              0 ****  ****    0 ROOT
