@<TRIPOS>MOLECULE
molecule
   55    54     1     0     0
SMALL
bcc


@<TRIPOS>ATOM
      1 O21          0.0000     0.0000     0.0000 oh         1 GYM      -0.605800
      2 C20          1.4290     0.0000     0.0000 c3         1 GYM       0.131400
      3 C18          1.9390     0.0000     1.4420 c3         1 GYM       0.149100
      4 O19          1.5610     1.2210     2.0810 oh         1 GYM      -0.591800
      5 C17          3.4630    -0.1270     1.4450 c3         1 GYM       0.136400
      6 O2           3.9370    -0.2460     2.8130 os         1 GYM      -0.427900
      7 C1           5.2620    -0.3660     2.9900 c          1 GYM       0.632100
      8 O1           6.0020    -0.3720     2.0350 o          1 GYM      -0.551000
      9 C2           5.8270    -0.4940     4.3820 c3         1 GYM      -0.125400
     10 C3           7.3510    -0.6160     4.3030 c3         1 GYM      -0.072400
     11 C4           7.9250    -0.7450     5.7160 c3         1 GYM      -0.084400
     12 C5           9.4480    -0.8670     5.6380 c3         1 GYM      -0.080400
     13 C6          10.0220    -0.9970     7.0510 c3         1 GYM      -0.082400
     14 C7          11.5450    -1.1190     6.9730 c3         1 GYM      -0.081400
     15 C8          12.1190    -1.2480     8.3850 c3         1 GYM      -0.082400
     16 C9          13.6420    -1.3700     8.3070 c3         1 GYM      -0.082400
     17 C10         14.2160    -1.5000     9.7210 c3         1 GYM      -0.082400
     18 C11         15.7390    -1.6220     9.6420 c3         1 GYM      -0.082400
     19 C12         16.3130    -1.7520    11.0550 c3         1 GYM      -0.081400
     20 C13         17.8360    -1.8730    10.9770 c3         1 GYM      -0.084400
     21 C14         18.4100    -2.0030    12.3900 c3         1 GYM      -0.092100
     22 H21         -0.3140    -0.0830    -0.8850 ho         1 GYM       0.407000
     23 H17          3.9000     0.7520     0.9870 h1         1 GYM       0.059200
     24 H71          3.7530    -1.0080     0.8850 h1         1 GYM       0.059200
     25 H18          1.5060    -0.8360     1.9780 h1         1 GYM       0.052700
     26 H19          1.0100     1.0310     2.8220 ho         1 GYM       0.412000
     27 H20          1.7900     0.8850    -0.5110 h1         1 GYM       0.032200
     28 H22          1.7900    -0.8850    -0.5110 h1         1 GYM       0.032200
     29 H23          5.5650     0.3830     4.9600 hc         1 GYM       0.072200
     30 H24          5.4180    -1.3770     4.8580 hc         1 GYM       0.072200
     31 H33          7.7600     0.2660     3.8260 hc         1 GYM       0.058700
     32 H34          7.6130    -1.4940     3.7250 hc         1 GYM       0.058700
     33 H43          7.6620     0.1320     6.2940 hc         1 GYM       0.041200
     34 H44          7.5160    -1.6280     6.1920 hc         1 GYM       0.041200
     35 H53          9.8570     0.0160     5.1620 hc         1 GYM       0.044200
     36 H54          9.7110    -1.7440     5.0590 hc         1 GYM       0.044200
     37 H63          9.7590    -0.1200     7.6290 hc         1 GYM       0.040700
     38 H64          9.6130    -1.8800     7.5270 hc         1 GYM       0.040700
     39 H73         11.8080    -1.9960     6.3950 hc         1 GYM       0.041700
     40 H74         11.9540    -0.2360     6.4960 hc         1 GYM       0.041700
     41 H83         11.8560    -0.3700     8.9640 hc         1 GYM       0.040700
     42 H84         11.7100    -2.1310     8.8620 hc         1 GYM       0.040700
     43 H93         14.0510    -0.4870     7.8310 hc         1 GYM       0.041700
     44 H94         13.9050    -2.2480     7.7290 hc         1 GYM       0.041700
     45 HA1         13.8070    -2.3830    10.1970 hc         1 GYM       0.040700
     46 HA2         13.9530    -0.6230    10.2990 hc         1 GYM       0.040700
     47 HA3         16.1480    -0.7390     9.1660 hc         1 GYM       0.040700
     48 HA4         16.0020    -2.4990     9.0630 hc         1 GYM       0.040700
     49 HA5         16.0500    -0.8750    11.6340 hc         1 GYM       0.040700
     50 HA6         15.9050    -2.6350    11.5310 hc         1 GYM       0.040700
     51 HA7         18.2450    -0.9900    10.5010 hc         1 GYM       0.039700
     52 HA8         18.1000    -2.7500    10.3980 hc         1 GYM       0.039700
     53 H40         19.4890    -2.0890    12.3340 hc         1 GYM       0.032367
     54 H41         18.1470    -1.1260    12.9690 hc         1 GYM       0.032367
     55 H42         18.0020    -2.8860    12.8660 hc         1 GYM       0.032367
@<TRIPOS>BOND
     1     1     2 1
     2     2     3 1
     3     3     4 1
     4     3     5 1
     5     5     6 1
     6     6     7 1
     7     7     8 2
     8     7     9 1
     9     9    10 1
    10    10    11 1
    11    11    12 1
    12    12    13 1
    13    13    14 1
    14    14    15 1
    15    15    16 1
    16    16    17 1
    17    17    18 1
    18    18    19 1
    19    19    20 1
    20    20    21 1
    21     1    22 1
    22     3    25 1
    23     5    23 1
    24     5    24 1
    25     2    27 1
    26     2    28 1
    27     4    26 1
    28     9    29 1
    29     9    30 1
    30    10    31 1
    31    10    32 1
    32    11    33 1
    33    11    34 1
    34    12    35 1
    35    12    36 1
    36    13    37 1
    37    13    38 1
    38    14    39 1
    39    14    40 1
    40    15    41 1
    41    15    42 1
    42    16    43 1
    43    16    44 1
    44    17    45 1
    45    17    46 1
    46    18    47 1
    47    18    48 1
    48    19    49 1
    49    19    50 1
    50    20    51 1
    51    20    52 1
    52    21    53 1
    53    21    54 1
    54    21    55 1
@<TRIPOS>SUBSTRUCTURE
     1 GYM         1 TEMP              0 ****  ****    0 ROOT
