@<TRIPOS>MOLECULE
molecule
   64    67     1     0     0
SMALL
bcc


@<TRIPOS>ATOM
      1 OBG          0.0000     0.0000     0.0000 o          1 GYR      -0.613300
      2 SAJ          1.4210     0.0000     0.0000 sy         1 GYR       1.195300
      3 OBF          2.1540     0.0000     1.2170 o          1 GYR      -0.613300
      4 CAK          1.8550    -1.5250    -0.7690 ca         1 GYR      -0.300500
      5 CAR          3.0680    -2.1230    -0.4810 ca         1 GYR      -0.030000
      6 CAQ          3.4080    -3.3200    -1.0830 ca         1 GYR      -0.151000
      7 CAP          2.5360    -3.9180    -1.9730 ca         1 GYR      -0.075000
      8 CAO          1.3230    -3.3210    -2.2600 ca         1 GYR      -0.151000
      9 CAN          0.9800    -2.1260    -1.6540 ca         1 GYR      -0.030000
     10 CAI          2.0570     1.2720    -1.1270 c3         1 GYR      -0.147300
     11 CAB          1.7440     2.6370    -0.5720 ca         1 GYR      -0.054300
     12 CAA          2.6420     3.2630     0.2720 ca         1 GYR      -0.149000
     13 CAF          2.3580     4.5160     0.7820 ca         1 GYR      -0.039300
     14 CAG          3.3390     5.1940     1.7020 c3         1 GYR      -0.048800
     15 CAE          1.1740     5.1460     0.4510 ca         1 GYR      -0.215000
     16 CAD          0.2700     4.5200    -0.3960 ca         1 GYR       0.151100
     17 CAC          0.5600     3.2640    -0.9100 ca         1 GYR      -0.146000
     18 OAH         -0.8950     5.1370    -0.7240 os         1 GYR      -0.320900
     19 CAL         -1.1260     6.4290    -0.1610 c3         1 GYR       0.187700
     20 CAM         -2.4570     6.9530    -0.6330 ca         1 GYR      -0.097300
     21 CAS         -3.6020     6.6880     0.0950 ca         1 GYR      -0.103000
     22 CAT         -4.8230     7.1680    -0.3380 ca         1 GYR      -0.120500
     23 CAU         -4.9010     7.9140    -1.4990 ca         1 GYR      -0.064300
     24 CAV         -3.7560     8.1820    -2.2250 ca         1 GYR      -0.120500
     25 CAW         -2.5340     7.7050    -1.7900 ca         1 GYR      -0.103000
     26 CAX         -6.2330     8.4380    -1.9710 c3         1 GYR       0.199100
     27 NAY         -6.4710     9.7660    -1.3910 n3         1 GYR      -0.700600
     28 CAZ         -7.8560    10.2080    -1.6340 c3         1 GYR       0.163500
     29 CBD         -8.5730    10.4320    -0.3010 c3         1 GYR       0.156400
     30 OBE         -7.9530    11.5140     0.3960 oh         1 GYR      -0.599800
     31 CBA         -7.7820    11.5350    -2.4200 c3         1 GYR      -0.094400
     32 CBB         -6.3750    11.4770    -3.0700 c3         1 GYR      -0.117400
     33 CBC         -5.5490    10.7680    -1.9680 c3         1 GYR       0.152800
     34 HAI1         3.1300     1.1600    -1.2280 h1         1 GYR       0.104200
     35 HAI2         1.5890     1.1600    -2.0980 h1         1 GYR       0.104200
     36 HAR          3.7510    -1.6540     0.2170 ha         1 GYR       0.150500
     37 HAN          0.0300    -1.6580    -1.8790 ha         1 GYR       0.150500
     38 HAQ          4.3590    -3.7890    -0.8580 ha         1 GYR       0.137000
     39 HAP          2.8040    -4.8550    -2.4470 ha         1 GYR       0.133000
     40 HAO          0.6390    -3.7920    -2.9560 ha         1 GYR       0.137000
     41 HAA          3.5810     2.7810     0.5140 ha         1 GYR       0.139000
     42 HAC         -0.1430     2.7730    -1.5720 ha         1 GYR       0.152000
     43 HAG1         4.2310     4.5860     1.7900 hc         1 GYR       0.046700
     44 HAG2         2.8900     5.3210     2.6800 hc         1 GYR       0.046700
     45 HAG3         3.6030     6.1640     1.2970 hc         1 GYR       0.046700
     46 HAE          0.9500     6.1270     0.8520 ha         1 GYR       0.138000
     47 HAL1        -1.1290     6.3570     0.9200 h1         1 GYR       0.041200
     48 HAL2        -0.3400     7.1050    -0.4750 h1         1 GYR       0.041200
     49 HAS         -3.5420     6.1030     1.0050 ha         1 GYR       0.133500
     50 HAW         -1.6370     7.9150    -2.3600 ha         1 GYR       0.133500
     51 HAT         -5.7200     6.9580     0.2320 ha         1 GYR       0.134000
     52 HAV         -3.8150     8.7690    -3.1340 ha         1 GYR       0.134000
     53 HAX1        -6.2300     8.5110    -3.0510 h1         1 GYR       0.039200
     54 HAX2        -7.0180     7.7610    -1.6570 h1         1 GYR       0.039200
     55 HAZ         -8.3810     9.4640    -2.2210 h1         1 GYR       0.046700
     56 HBC1        -4.6860    10.2790    -2.4020 h1         1 GYR       0.061200
     57 HBC2        -5.2460    11.4800    -1.2100 h1         1 GYR       0.061200
     58 HBD1        -8.5100     9.5320     0.2980 h1         1 GYR       0.022200
     59 HBD2        -9.6140    10.6700    -0.4860 h1         1 GYR       0.022200
     60 HBA1        -8.5520    11.5710    -3.1810 hc         1 GYR       0.058200
     61 HBA2        -7.8570    12.3810    -1.7480 hc         1 GYR       0.058200
     62 HBE         -8.4720    11.7410     1.1500 ho         1 GYR       0.396000
     63 HBB1        -5.9940    12.4750    -3.2550 hc         1 GYR       0.046700
     64 HBB2        -6.3930    10.8870    -3.9780 hc         1 GYR       0.046700
@<TRIPOS>BOND
     1     1     2 2
     2     2     3 2
     3     2     4 1
     4     2    10 1
     5     4     5 ar
     6     4     9 ar
     7     5     6 ar
     8     6     7 ar
     9     7     8 ar
    10     8     9 ar
    11    10    11 1
    12    11    12 ar
    13    11    17 ar
    14    12    13 ar
    15    13    14 1
    16    13    15 ar
    17    15    16 ar
    18    16    17 ar
    19    16    18 1
    20    18    19 1
    21    19    20 1
    22    20    21 ar
    23    20    25 ar
    24    21    22 ar
    25    22    23 ar
    26    23    24 ar
    27    23    26 1
    28    24    25 ar
    29    26    27 1
    30    27    28 1
    31    27    33 1
    32    28    29 1
    33    28    31 1
    34    29    30 1
    35    31    32 1
    36    32    33 1
    37    10    34 1
    38    10    35 1
    39     5    36 1
    40     9    37 1
    41     6    38 1
    42     7    39 1
    43     8    40 1
    44    12    41 1
    45    17    42 1
    46    14    43 1
    47    14    44 1
    48    14    45 1
    49    15    46 1
    50    19    47 1
    51    19    48 1
    52    21    49 1
    53    25    50 1
    54    22    51 1
    55    24    52 1
    56    26    53 1
    57    26    54 1
    58    28    55 1
    59    33    56 1
    60    33    57 1
    61    29    58 1
    62    29    59 1
    63    31    60 1
    64    31    61 1
    65    30    62 1
    66    32    63 1
    67    32    64 1
@<TRIPOS>SUBSTRUCTURE
     1 GYR         1 TEMP              0 ****  ****    0 ROOT
