@<TRIPOS>MOLECULE
GYU
   43    43     1     0     0
SMALL
bcc


@<TRIPOS>ATOM
      1 C1           0.0000     0.0000     0.0000 c          1 GYU       0.691100
      2 O1A          1.2270     0.0000     0.0000 o          1 GYU      -0.585000
      3 O1B         -0.7730     0.0000     1.1300 os         1 GYU      -0.464900
      4 C12         -0.3000    -0.0010    -2.4720 c3         1 GYU       0.060000
      5 C13         -0.0960    -1.4100    -3.0150 c3         1 GYU      -0.056400
      6 C14         -1.3870    -2.2140    -3.0630 c3         1 GYU       0.005900
      7 C5          -1.0520    -0.0070     3.5460 c3         1 GYU      -0.036300
      8 N5          -1.9480    -1.1380     3.4680 ns         1 GYU      -0.198900
      9 C10         -1.6580    -2.3730     4.0180 c          1 GYU       0.593100
     10 O10         -0.6390    -2.6750     4.6270 o          1 GYU      -0.619100
     11 C11         -2.7280    -3.3940     3.8200 c3         1 GYU      -0.088100
     12 C6          -1.8260     1.3120     3.6170 c3         1 GYU       0.166100
     13 O6          -2.5660     1.3430     4.8400 oh         1 GYU      -0.581800
     14 C7          -0.8610     2.5010     3.5970 c3         1 GYU       0.151100
     15 O7          -1.6310     3.6920     3.4610 oh         1 GYU      -0.584800
     16 C15         -0.0690     0.0010     2.3710 c3         1 GYU       0.394900
     17 O8           0.8160     1.1180     2.4830 os         1 GYU      -0.362600
     18 NAC         -0.8060    -0.0000    -1.1180 ns         1 GYU      -0.195900
     19 C8           0.1450     2.3820     2.4460 c3         1 GYU       0.148100
     20 C9           1.2220     3.4610     2.5120 c3         1 GYU       0.229400
     21 O9           2.1120     3.2760     1.4270 oh         1 GYU      -0.566800
     22 HAC         -1.7980    -0.0000    -0.9850 hn         1 GYU       0.172500
     23 H15          0.5260    -0.9030     2.4260 h2         1 GYU       0.054700
     24 H121        -1.0020     0.5220    -3.1090 h1         1 GYU       0.027200
     25 H122         0.6490     0.5230    -2.4920 h1         1 GYU       0.027200
     26 H131         0.3110    -1.3430    -4.0160 hc         1 GYU       0.024700
     27 H132         0.6140    -1.9280    -2.3820 hc         1 GYU       0.024700
     28 H141        -1.3190    -2.9590    -3.8470 hc         1 GYU       0.000700
     29 H142        -2.2180    -1.5500    -3.2680 hc         1 GYU       0.000700
     30 H143        -1.5430    -2.7050    -2.1100 hc         1 GYU       0.000700
     31 H5          -0.4750    -0.0990     4.4570 h1         1 GYU       0.079700
     32 HA          -2.8220    -1.0210     2.9930 hn         1 GYU       0.174500
     33 H6          -2.5030     1.3810     2.7750 h1         1 GYU       0.020700
     34 H111        -3.6660    -3.0140     4.2080 hc         1 GYU       0.025700
     35 H112        -2.8340    -3.6060     2.7630 hc         1 GYU       0.025700
     36 H113        -2.4620    -4.3030     4.3460 hc         1 GYU       0.025700
     37 HB          -3.4850     1.4290     4.6490 ho         1 GYU       0.395000
     38 H7          -0.3190     2.5300     4.5350 h1         1 GYU       0.023700
     39 HC          -1.5860     4.1890     4.2610 ho         1 GYU       0.399000
     40 H8          -0.3880     2.4680     1.5060 h1         1 GYU       0.030700
     41 H9C1         0.7630     4.4400     2.4440 h1         1 GYU      -0.008800
     42 H9C2         1.7640     3.3780     3.4460 h1         1 GYU      -0.008800
     43 H9           2.6980     4.0130     1.3720 ho         1 GYU       0.385000
@<TRIPOS>BOND
     1     1     2 2   
     2     1     3 1   
     3     1    18 1   
     4     3    16 1   
     5     4     5 1   
     6     4    18 1   
     7     4    24 1   
     8     4    25 1   
     9     5     6 1   
    10     5    26 1   
    11     5    27 1   
    12     6    28 1   
    13     6    29 1   
    14     6    30 1   
    15     7     8 1   
    16     7    12 1   
    17     7    16 1   
    18     7    31 1   
    19     8     9 1   
    20     8    32 1   
    21     9    10 2   
    22     9    11 1   
    23    11    34 1   
    24    11    35 1   
    25    11    36 1   
    26    12    13 1   
    27    12    14 1   
    28    12    33 1   
    29    13    37 1   
    30    14    15 1   
    31    14    19 1   
    32    14    38 1   
    33    15    39 1   
    34    16    17 1   
    35    16    23 1   
    36    17    19 1   
    37    18    22 1   
    38    19    20 1   
    39    19    40 1   
    40    20    21 1   
    41    20    41 1   
    42    20    42 1   
    43    21    43 1   
@<TRIPOS>SUBSTRUCTURE
     1 GYU         1 TEMP              0 ****  ****    0 ROOT
