@<TRIPOS>MOLECULE
molecule
   43    43     1     0     0
SMALL
bcc


@<TRIPOS>ATOM
      1 C1           0.0000     0.0000     0.0000 c          1 GYU       0.753100
      2 O1A          1.2270     0.0000     0.0000 o          1 GYU      -0.540000
      3 O1B         -0.7730     0.0000     1.1300 os         1 GYU      -0.472900
      4 C12         -0.3000    -0.0010    -2.4720 c3         1 GYU       0.125000
      5 C13         -0.0960    -1.4100    -3.0150 c3         1 GYU      -0.112400
      6 C14         -1.3870    -2.2140    -3.0630 c3         1 GYU      -0.090100
      7 C5          -1.0520    -0.0070     3.5460 c3         1 GYU       0.085700
      8 N5          -1.9480    -1.1380     3.4680 ns         1 GYU      -0.584900
      9 C10         -1.6580    -2.3730     4.0180 c          1 GYU       0.674100
     10 O10         -0.6390    -2.6750     4.6270 o          1 GYU      -0.585100
     11 C11         -2.7280    -3.3940     3.8200 c3         1 GYU      -0.184100
     12 C6          -1.8260     1.3120     3.6170 c3         1 GYU       0.123100
     13 O6          -2.5660     1.3430     4.8400 oh         1 GYU      -0.599800
     14 C7          -0.8610     2.5010     3.5970 c3         1 GYU       0.113100
     15 O7          -1.6310     3.6920     3.4610 oh         1 GYU      -0.602800
     16 C15         -0.0690     0.0010     2.3710 c3         1 GYU       0.333900
     17 O8           0.8160     1.1180     2.4830 os         1 GYU      -0.376600
     18 NAC         -0.8060    -0.0000    -1.1180 ns         1 GYU      -0.581900
     19 C8           0.1450     2.3820     2.4460 c3         1 GYU       0.130100
     20 C9           1.2220     3.4610     2.5120 c3         1 GYU       0.155400
     21 O9           2.1120     3.2760     1.4270 oh         1 GYU      -0.582800
     22 HAC         -1.7980    -0.0000    -0.9850 hn         1 GYU       0.318500
     23 H15          0.5260    -0.9030     2.4260 h2         1 GYU       0.107700
     24 H121        -1.0020     0.5220    -3.1090 h1         1 GYU       0.056200
     25 H122         0.6490     0.5230    -2.4920 h1         1 GYU       0.056200
     26 H131         0.3110    -1.3430    -4.0160 hc         1 GYU       0.053200
     27 H132         0.6140    -1.9280    -2.3820 hc         1 GYU       0.053200
     28 H141        -1.3190    -2.9590    -3.8470 hc         1 GYU       0.033033
     29 H142        -2.2180    -1.5500    -3.2680 hc         1 GYU       0.033033
     30 H143        -1.5430    -2.7050    -2.1100 hc         1 GYU       0.033033
     31 H5          -0.4750    -0.0990     4.4570 h1         1 GYU       0.108700
     32 HA          -2.8220    -1.0210     2.9930 hn         1 GYU       0.316500
     33 H6          -2.5030     1.3810     2.7750 h1         1 GYU       0.056700
     34 H111        -3.6660    -3.0140     4.2080 hc         1 GYU       0.063367
     35 H112        -2.8340    -3.6060     2.7630 hc         1 GYU       0.063367
     36 H113        -2.4620    -4.3030     4.3460 hc         1 GYU       0.063367
     37 HB          -3.4850     1.4290     4.6490 ho         1 GYU       0.408000
     38 H7          -0.3190     2.5300     4.5350 h1         1 GYU       0.058700
     39 HC          -1.5860     4.1890     4.2610 ho         1 GYU       0.413000
     40 H8          -0.3880     2.4680     1.5060 h1         1 GYU       0.066700
     41 H9C1         0.7630     4.4400     2.4440 h1         1 GYU       0.029200
     42 H9C2         1.7640     3.3780     3.4460 h1         1 GYU       0.029200
     43 H9           2.6980     4.0130     1.3720 ho         1 GYU       0.401000
@<TRIPOS>BOND
     1     1     2 2
     2     1     3 1
     3     4     5 1
     4     5     6 1
     5     7     8 1
     6     8     9 1
     7     9    10 2
     8     9    11 1
     9     7    12 1
    10    12    13 1
    11    12    14 1
    12    14    15 1
    13     3    16 1
    14     7    16 1
    15    16    17 1
    16     1    18 1
    17     4    18 1
    18    14    19 1
    19    17    19 1
    20    19    20 1
    21    20    21 1
    22    18    22 1
    23    16    23 1
    24     4    24 1
    25     4    25 1
    26     5    26 1
    27     5    27 1
    28     6    28 1
    29     6    29 1
    30     6    30 1
    31     7    31 1
    32     8    32 1
    33    12    33 1
    34    11    34 1
    35    11    35 1
    36    11    36 1
    37    13    37 1
    38    14    38 1
    39    15    39 1
    40    19    40 1
    41    20    41 1
    42    20    42 1
    43    21    43 1
@<TRIPOS>SUBSTRUCTURE
     1 GYU         1 TEMP              0 ****  ****    0 ROOT
