@<TRIPOS>MOLECULE
GYY
   62    63     1     0     0
SMALL
bcc


@<TRIPOS>ATOM
      1 CAA          0.0000     0.0000     0.0000 ca         1 GYY      -0.098000
      2 CAB          1.3940     0.0000     0.0000 ca         1 GYY      -0.085000
      3 CAD         -0.7000     0.0010     1.1670 ca         1 GYY      -0.084000
      4 CAE          2.0950     0.0000     1.1670 ca         1 GYY      -0.058300
      5 CAF          3.6010     0.0010     1.1440 c3         1 GYY      -0.042100
      6 CAG          4.1060    -1.4150     1.2610 c          1 GYY       0.568100
      7 CAI          5.9220    -3.0350     1.3760 c3         1 GYY       0.054000
      8 CAJ          7.4520    -3.0350     1.3530 c3         1 GYY      -0.043400
      9 CAK          7.9640    -4.4710     1.4720 c3         1 GYY       0.149800
     10 CAM          9.9610    -5.8380     1.5620 c3         1 GYY       0.146800
     11 CAN         11.4910    -5.7960     1.5370 c3         1 GYY      -0.027400
     12 CAO         12.0410    -7.2190     1.6530 c3         1 GYY      -0.026400
     13 CAP         13.5710    -7.1780     1.6270 c3         1 GYY       0.144800
     14 CAR         15.5670    -8.5430     1.7180 c3         1 GYY       0.157800
     15 CAS         16.0800    -9.9800     1.8350 c3         1 GYY      -0.039400
     16 CAT         17.6100    -9.9800     1.8130 c3         1 GYY      -0.052200
     17 CAV         -0.0110    -0.0050     2.3920 ca         1 GYY      -0.032000
     18 CAW          1.4070     0.0000     2.3920 ca         1 GYY      -0.011000
     19 CAX         -0.7000    -0.0040     3.6170 ca         1 GYY      -0.082000
     20 CAY          2.0960     0.0010     3.6160 ca         1 GYY      -0.098000
     21 CAZ          0.0020    -0.0090     4.7840 ca         1 GYY      -0.103000
     22 CBA          1.3950     0.0020     4.7830 ca         1 GYY      -0.096000
     23 NAH          5.4320    -1.6590     1.2630 ns         1 GYY      -0.212900
     24 NAL          9.4330    -4.4710     1.4510 n7         1 GYY      -0.587200
     25 NAQ         14.0990    -8.5440     1.7390 n7         1 GYY      -0.579200
     26 NAU         18.1020   -11.3590     1.9270 nz         1 GYY       0.088400
     27 OAC          3.3200    -2.3330     1.3530 o          1 GYY      -0.626100
     28 HAA1        -0.5340    -0.0000    -0.9430 ha         1 GYY       0.101000
     29 HAB1         1.9270    -0.0010    -0.9430 ha         1 GYY       0.100000
     30 HAD1        -1.7840     0.0010     1.1520 ha         1 GYY       0.106000
     31 HAF1         3.9490     0.4320     0.2130 hc         1 GYY       0.033200
     32 HAF2         3.9750     0.5870     1.9750 hc         1 GYY       0.033200
     33 HAI1         5.5490    -3.6210     0.5440 h1         1 GYY       0.027200
     34 HAI2         5.5750    -3.4670     2.3060 h1         1 GYY       0.027200
     35 HAJ2         7.8250    -2.4490     2.1840 hc         1 GYY       0.021700
     36 HAJ1         7.7990    -2.6030     0.4220 hc         1 GYY       0.021700
     37 HAK1         7.5910    -5.0570     0.6400 h1         1 GYY       0.012200
     38 HAK2         7.6160    -4.9030     2.4020 h1         1 GYY       0.012200
     39 HAM2         9.6280    -6.2790     2.4940 h1         1 GYY       0.009200
     40 HAM1         9.6020    -6.4330     0.7310 h1         1 GYY       0.009200
     41 HAN2        11.8250    -5.3540     0.6060 hc         1 GYY       0.021200
     42 HAN1        11.8500    -5.2010     2.3680 hc         1 GYY       0.021200
     43 HAO2        11.7080    -7.6610     2.5840 hc         1 GYY       0.022700
     44 HAO1        11.6820    -7.8140     0.8210 hc         1 GYY       0.022700
     45 HAP1        13.9300    -6.5820     2.4580 h1         1 GYY       0.013700
     46 HAP2        13.9040    -6.7360     0.6960 h1         1 GYY       0.013700
     47 HAR1        15.9400    -7.9580     2.5490 h1         1 GYY       0.017700
     48 HAR2        15.9150    -8.1110     0.7870 h1         1 GYY       0.017700
     49 HAS2        15.7070   -10.5660     1.0040 hc         1 GYY       0.038700
     50 HAS1        15.7330   -10.4130     2.7660 hc         1 GYY       0.038700
     51 HAT2        17.9570    -9.5490     0.8820 hx         1 GYY       0.085700
     52 HAT1        17.9830    -9.3930     2.6440 hx         1 GYY       0.085700
     53 HAX1        -1.7830    -0.0130     3.6330 ha         1 GYY       0.106000
     54 HAY1         3.1790     0.0090     3.6310 ha         1 GYY       0.103000
     55 HAZ1        -0.5310    -0.0080     5.7270 ha         1 GYY       0.101000
     56 HBA1         1.9290    -0.0030     5.7260 ha         1 GYY       0.097000
     57 HAH1         6.0800    -0.9040     1.1570 hn         1 GYY       0.173500
     58 H1           9.7780    -3.9170     2.2100 hn         1 GYY       0.252800
     59 H2          13.7770    -8.9570     2.5920 hn         1 GYY       0.256800
     60 H3          17.7200   -11.9120     1.1860 hn         1 GYY       0.224133
     61 HAU2        19.1010   -11.3640     1.8660 hn         1 GYY       0.224133
     62 HAU3        17.8200   -11.7420     2.8080 hn         1 GYY       0.224133
@<TRIPOS>BOND
     1     1     2 ar  
     2     1     3 ar  
     3     1    28 1   
     4     2     4 ar  
     5     2    29 1   
     6     3    17 ar  
     7     3    30 1   
     8     4     5 1   
     9     4    18 ar  
    10     5     6 1   
    11     5    31 1   
    12     5    32 1   
    13     6    23 1   
    14     6    27 2   
    15     7     8 1   
    16     7    23 1   
    17     7    33 1   
    18     7    34 1   
    19     8     9 1   
    20     8    35 1   
    21     8    36 1   
    22     9    24 1   
    23     9    37 1   
    24     9    38 1   
    25    10    11 1   
    26    10    24 1   
    27    10    39 1   
    28    10    40 1   
    29    11    12 1   
    30    11    41 1   
    31    11    42 1   
    32    12    13 1   
    33    12    43 1   
    34    12    44 1   
    35    13    25 1   
    36    13    45 1   
    37    13    46 1   
    38    14    15 1   
    39    14    25 1   
    40    14    47 1   
    41    14    48 1   
    42    15    16 1   
    43    15    49 1   
    44    15    50 1   
    45    16    26 1   
    46    16    51 1   
    47    16    52 1   
    48    17    18 ar  
    49    17    19 ar  
    50    18    20 ar  
    51    19    21 ar  
    52    19    53 1   
    53    20    22 ar  
    54    20    54 1   
    55    21    22 ar  
    56    21    55 1   
    57    22    56 1   
    58    23    57 1   
    59    24    58 1   
    60    25    59 1   
    61    26    60 1   
    62    26    61 1   
    63    26    62 1   
@<TRIPOS>SUBSTRUCTURE
     1 GYY         1 TEMP              0 ****  ****    0 ROOT
