@<TRIPOS>MOLECULE
molecule
   22    23     1     0     0
SMALL
bcc


@<TRIPOS>ATOM
      1 O13          0.0000     0.0000     0.0000 o          1 GZ2      -0.545100
      2 C11          1.2150     0.0000     0.0000 c          1 GZ2       0.589300
      3 C12          1.9080     0.0000     1.2150 ce         1 GZ2      -0.361200
      4 C7           3.2570    -0.0030     1.2620 c2         1 GZ2       0.202800
      5 C8           4.0810    -0.0110     0.0010 c3         1 GZ2      -0.060200
      6 C9           3.3110     0.6990    -1.1160 c3         1 GZ2      -0.076400
      7 C10          1.9620    -0.0050    -1.3090 c3         1 GZ2      -0.183400
      8 N6           3.8860     0.0030     2.4740 nu         1 GZ2      -0.737700
      9 C5           5.2650    -0.1340     2.5390 cc         1 GZ2       0.656400
     10 N4           6.0740    -0.3830     1.5340 nd         1 GZ2      -0.456000
     11 N3           7.2900    -0.4470     1.9410 nd         1 GZ2       0.014000
     12 N2           7.3490    -0.2470     3.2130 nc         1 GZ2      -0.204800
     13 N1           6.0300    -0.0280     3.6500 na         1 GZ2      -0.220400
     14 H12          1.3480     0.0060     2.1420 ha         1 GZ2       0.144000
     15 H8           5.0160     0.5070     0.1790 hc         1 GZ2       0.091200
     16 H8A          4.2780    -1.0340    -0.2930 hc         1 GZ2       0.091200
     17 H9           3.1440     1.7330    -0.8400 hc         1 GZ2       0.054200
     18 H9A          3.8810     0.6500    -2.0360 hc         1 GZ2       0.054200
     19 H10          2.1300    -1.0270    -1.6260 hc         1 GZ2       0.072700
     20 H10A         1.3830     0.5220    -2.0580 hc         1 GZ2       0.072700
     21 HN6          3.3500     0.0800     3.3150 hn         1 GZ2       0.464800
     22 HN1          5.7230     0.1580     4.5840 hn         1 GZ2       0.337700
@<TRIPOS>BOND
     1     1     2 2
     2     2     3 1
     3     2     7 1
     4     3     4 2
     5     4     5 1
     6     4     8 1
     7     5     6 1
     8     6     7 1
     9     8     9 1
    10     9    10 2
    11     9    13 1
    12    10    11 1
    13    11    12 2
    14    12    13 1
    15     3    14 1
    16     5    15 1
    17     5    16 1
    18     6    17 1
    19     6    18 1
    20     7    19 1
    21     7    20 1
    22     8    21 1
    23    13    22 1
@<TRIPOS>SUBSTRUCTURE
     1 GZ2         1 TEMP              0 ****  ****    0 ROOT
