@<TRIPOS>MOLECULE
molecule
   14    13     1     0     0
SMALL
bcc


@<TRIPOS>ATOM
      1 CAI          0.0000     0.0000     0.0000 c          1 GZ3       0.891800
      2 OAB          1.2150     0.0000     0.0000 o          1 GZ3      -0.920300
      3 OAD         -0.6740     0.0000     1.1680 o          1 GZ3      -0.920300
      4 CAH         -0.7350     0.0070    -1.2720 ce         1 GZ3      -0.174400
      5 CAA         -2.2420     0.0140    -1.2730 c3         1 GZ3      -0.053900
      6 CAG         -0.0690     0.0080    -2.4250 c2         1 GZ3      -0.265600
      7 PAJ         -0.9690     0.1740    -3.9920 p5         1 GZ3       1.103100
      8 OAE          0.0820     0.3840    -5.1940 o          1 GZ3      -0.946833
      9 OAF         -1.8310    -1.1590    -4.2590 o          1 GZ3      -0.946833
     10 OAC         -1.8740     1.3420    -3.9190 o          1 GZ3      -0.946833
     11 HAG          1.0140     0.0040    -2.4240 ha         1 GZ3       0.094000
     12 HAA1        -2.6060    -0.7360    -1.9650 hc         1 GZ3       0.028700
     13 HAA2        -2.5980     0.9900    -1.5770 hc         1 GZ3       0.028700
     14 HAA3        -2.6040    -0.2080    -0.2760 hc         1 GZ3       0.028700
@<TRIPOS>BOND
     1     8     7 1
     2     7     9 1
     3     7    10 1
     4     7     6 1
     5     6     4 2
     6     4     5 1
     7     4     1 1
     8     1     3 1
     9     1     2 1
    10     6    11 1
    11     5    12 1
    12     5    13 1
    13     5    14 1
@<TRIPOS>SUBSTRUCTURE
     1 GZ3         1 TEMP              0 ****  ****    0 ROOT
