@<TRIPOS>MOLECULE
GZ3
   14    12     1     0     0
SMALL
bcc


@<TRIPOS>ATOM
      1 CAI       104.2810  -35.7710  432.8900 c2        1 GZ3      0.391000
      2 OAB       104.7500  -35.0240  433.8170 o         1 GZ3     -0.669000
      3 OAD       103.0600  -35.6130  432.5410 o         1 GZ3     -0.669000
      4 CAH       105.1670  -36.7450  432.1610 c2        1 GZ3     -0.305000
      5 CAA       105.8170  -36.0950  430.9840 c3        1 GZ3     -0.128000
      6 CAG       105.3560  -38.0190  432.5030 c1        1 GZ3     -0.524000
      7 PAJ      -266.9760   90.8990-1086.6570 p3        1 GZ3      2.361000
      8 OAE      -266.9320   89.5700-1086.0210 o         1 GZ3     -1.120000
      9 OAF      -268.2290   91.6740-1086.6600 o         1 GZ3     -1.120000
     10 OAC      -265.7650   91.4530-1087.2900 o         1 GZ3     -1.120000
     11 HAG       106.0430  -38.6120  431.8530 ha        1 GZ3     -0.083000
     12 HAA1      106.5060  -35.2700  431.3030 hc        1 GZ3     -0.004667
     13 HAA2      105.0580  -35.6430  430.2950 hc        1 GZ3     -0.004667
     14 HAA3      106.4230  -36.8260  430.3870 hc        1 GZ3     -0.004667
@<TRIPOS>BOND
     1    1    2 1   
     2    1    3 1   
     3    1    4 1   
     4    4    5 1   
     5    4    6 1   
     6    5   12 1   
     7    5   13 1   
     8    5   14 1   
     9    6   11 1   
    10    7    8 1   
    11    7    9 1   
    12    7   10 1   
@<TRIPOS>SUBSTRUCTURE
     1 GZ3         1 TEMP              0 ****  ****    0 ROOT
