@<TRIPOS>MOLECULE
GZ4
   48    51     1     0     0
SMALL
bcc


@<TRIPOS>ATOM
      1 C4           0.0000     0.0000     0.0000 cc         1 GZ4       0.249800
      2 C5           1.4160     0.0000     0.0000 cc         1 GZ4      -0.260600
      3 C6           1.3960     0.0000     2.3740 c          1 GZ4       0.582500
      4 N1           2.0790     0.0000     1.2170 ns         1 GZ4       0.001500
      5 C7          -0.6950     0.0000     1.3100 c          1 GZ4       0.503000
      6 C8           1.4320    -0.0020    -2.2930 ca         1 GZ4      -0.272600
      7 N2           0.0550     0.0010     2.4320 ns         1 GZ4      -0.119500
      8 C9           2.1050    -0.0030    -3.5260 ca         1 GZ4      -0.137000
      9 C10          1.3880    -0.0070    -4.6820 ca         1 GZ4       0.028700
     10 C11          2.1200    -0.0090    -6.0000 c3         1 GZ4       0.039200
     11 N3           2.0920    -0.0010    -1.1310 na         1 GZ4       0.587900
     12 C13          4.0680     1.4410    -1.1110 c3         1 GZ4      -0.043400
     13 C14          5.5980     1.4420    -1.0940 c3         1 GZ4       0.049900
     14 C15          6.1000     2.8630    -1.0890 ca         1 GZ4      -0.125300
     15 O1          -1.9080     0.0000     1.3710 o          1 GZ4      -0.539500
     16 N           -0.6850    -0.0060    -1.1260 nd         1 GZ4      -0.331000
     17 O            2.0220    -0.0010     3.4160 o          1 GZ4      -0.617500
     18 C3          -0.0340    -0.0070    -2.2890 ca         1 GZ4       0.319600
     19 C2          -0.7160    -0.0130    -3.5200 ca         1 GZ4      -0.072300
     20 C1          -0.0050    -0.0130    -4.6790 ca         1 GZ4      -0.056300
     21 C           -0.7430    -0.0200    -5.9930 c3         1 GZ4       0.048200
     22 C20          6.3170     3.5140     0.1090 ca         1 GZ4      -0.094500
     23 C19          6.7780     4.8180     0.1140 ca         1 GZ4      -0.087000
     24 C18          7.0200     5.4690    -1.0810 ca         1 GZ4      -0.080000
     25 C17          6.8030     4.8170    -2.2800 ca         1 GZ4      -0.087000
     26 C16          6.3480     3.5120    -2.2840 ca         1 GZ4      -0.094500
     27 H4           3.0790    -0.0000     1.2350 hn         1 GZ4       0.218500
     28 H5          -0.3970     0.0010     3.3250 hn         1 GZ4       0.234500
     29 H6           3.1810    -0.1280    -3.5550 ha         1 GZ4       0.143000
     30 H8           1.8290    -0.8800    -6.5730 hc         1 GZ4       0.032700
     31 H7           3.1880    -0.0340    -5.8200 hc         1 GZ4       0.032700
     32 H9           1.8680     0.8880    -6.5530 hc         1 GZ4       0.032700
     33 H10          3.9280    -0.5120    -1.9960 h1         1 GZ4       0.071200
     34 H11          3.9090    -0.5110    -0.2270 h1         1 GZ4       0.071200
     35 H12          3.6970     1.9530    -0.2310 hc         1 GZ4       0.035700
     36 H13          3.7160     1.9510    -2.0000 hc         1 GZ4       0.035700
     37 H15          5.9690     0.9310    -1.9740 hc         1 GZ4       0.024700
     38 H14          5.9490     0.9320    -0.2060 hc         1 GZ4       0.024700
     39 H3          -1.7990    -0.0180    -3.5440 ha         1 GZ4       0.152000
     40 H2          -1.8100    -0.0120    -5.8080 hc         1 GZ4       0.031033
     41 H1          -0.4690     0.8580    -6.5650 hc         1 GZ4       0.031033
     42 H           -0.4790    -0.9110    -6.5510 hc         1 GZ4       0.031033
     43 H20          6.1270     3.0040     1.0450 ha         1 GZ4       0.102000
     44 H19          6.9480     5.3290     1.0540 ha         1 GZ4       0.112500
     45 H18          7.3790     6.4920    -1.0780 ha         1 GZ4       0.114000
     46 H17          6.9960     5.3260    -3.2160 ha         1 GZ4       0.112500
     47 H16          6.1790     3.0010    -3.2240 ha         1 GZ4       0.102000
     48 C12          3.5570    -0.0010    -1.1150 c3         1 GZ4      -0.134700
@<TRIPOS>BOND
     1     1     2 1   
     2     1     5 1   
     3     1    16 2   
     4     2     4 2   
     5     2    11 1   
     6     3     4 1   
     7     3     7 1   
     8     3    17 2   
     9     4    27 1   
    10     5     7 1   
    11     5    15 2   
    12     6     8 ar  
    13     6    11 1   
    14     6    18 ar  
    15     7    28 1   
    16     8     9 ar  
    17     8    29 1   
    18     9    10 1   
    19     9    20 ar  
    20    10    30 1   
    21    10    31 1   
    22    10    32 1   
    23    11    48 1   
    24    12    13 1   
    25    12    35 1   
    26    12    36 1   
    27    12    48 1   
    28    13    14 1   
    29    13    37 1   
    30    13    38 1   
    31    14    22 ar  
    32    14    26 ar  
    33    16    18 1   
    34    18    19 ar  
    35    19    20 ar  
    36    19    39 1   
    37    20    21 1   
    38    21    40 1   
    39    21    41 1   
    40    21    42 1   
    41    22    23 ar  
    42    22    43 1   
    43    23    24 ar  
    44    23    44 1   
    45    24    25 ar  
    46    24    45 1   
    47    25    26 ar  
    48    25    46 1   
    49    26    47 1   
    50    33    48 1   
    51    34    48 1   
@<TRIPOS>SUBSTRUCTURE
     1 GZ4         1 TEMP              0 ****  ****    0 ROOT
