@<TRIPOS>MOLECULE
molecule
   61    64     1     0     0
SMALL
bcc


@<TRIPOS>ATOM
      1 C4           0.0000     0.0000     0.0000 ca         1 GZ7       0.755300
      2 O4          -0.7010     0.0060    -1.1570 oh         1 GZ7      -0.541300
      3 C6          -3.9580     0.0060     2.7600 cc         1 GZ7      -0.009000
      4 N1           1.5020    -0.0010     2.3300 nb         1 GZ7      -0.800000
      5 C7          -4.5050     0.0050     4.0010 cd         1 GZ7      -0.135200
      6 C8          -3.7070    -0.0010     5.1560 cd         1 GZ7       0.275700
      7 C9          -2.3330    -0.0060     5.0770 cd         1 GZ7      -0.297000
      8 C10          0.1700    -0.0080     2.5000 ca         1 GZ7       0.533500
      9 C11         -2.9300     1.2850     9.6100 c3         1 GZ7      -0.082400
     10 C12         -3.6050    -0.0240    10.0590 c3         1 GZ7      -0.082400
     11 N3           1.3230     0.0000     0.0000 nb         1 GZ7      -0.896000
     12 C13         -4.2840    -0.6200     8.8070 c3         1 GZ7      -0.095400
     13 C01          0.7420     1.4430     5.3210 c3         1 GZ7      -0.104400
     14 N01         -4.3180    -0.0020     6.4060 nu         1 GZ7      -0.383100
     15 O01          4.2850     3.3110    10.3870 o          1 GZ7      -0.845800
     16 C02          0.4580    -0.0020     4.9050 c3         1 GZ7       0.002300
     17 C2           2.0280     0.0000     1.1250 ca         1 GZ7       1.034300
     18 O02          4.3110     5.5200    10.4380 o          1 GZ7      -0.845800
     19 O2           3.3780     0.0000     1.0240 oh         1 GZ7      -0.553300
     20 C03          1.6200     1.4500     6.5740 c3         1 GZ7      -0.077400
     21 C04          1.9050     2.8950     6.9880 c3         1 GZ7      -0.086400
     22 C4A         -0.6780    -0.0020     1.3010 ca         1 GZ7       0.078000
     23 C05          2.7820     2.9020     8.2410 c3         1 GZ7      -0.062400
     24 C5A         -2.5540     0.0020     2.6120 cc         1 GZ7       0.251300
     25 N5          -1.9940     0.0030     1.4060 nd         1 GZ7      -0.499000
     26 C06          3.0670     4.3480     8.6570 c3         1 GZ7      -0.183400
     27 C07          3.9320     4.3550     9.8910 c          1 GZ7       0.890600
     28 C7M         -6.0050     0.0090     4.1440 c3         1 GZ7      -0.059900
     29 C08         -3.5000    -0.0080     7.6210 c3         1 GZ7       0.025000
     30 C09         -3.2240     1.4380     8.1030 c3         1 GZ7      -0.095400
     31 C9A         -1.7120    -0.0040     3.8150 cc         1 GZ7       0.024400
     32 N10         -0.3830    -0.0090     3.7070 na         1 GZ7      -0.083900
     33 H41         -0.1310    -0.2300    -1.8700 ho         1 GZ7       0.468000
     34 H61         -4.5970     0.0110     1.8850 ha         1 GZ7       0.179000
     35 H91         -1.7340    -0.0110     5.9800 ha         1 GZ7       0.180000
     36 H111        -3.3480     2.1220    10.1560 hc         1 GZ7       0.061700
     37 H112        -1.8610     1.2240     9.7740 hc         1 GZ7       0.061700
     38 H121        -4.3480     0.1850    10.8190 hc         1 GZ7       0.061700
     39 H122        -2.8610    -0.7130    10.4390 hc         1 GZ7       0.061700
     40 H132        -5.3250    -0.3240     8.7650 hc         1 GZ7       0.055200
     41 H131        -4.1910    -1.7000     8.8050 hc         1 GZ7       0.055200
     42 H012         1.2560     1.9560     4.5170 hc         1 GZ7       0.057700
     43 H011        -0.1930     1.9490     5.5320 hc         1 GZ7       0.057700
     44 H013        -5.3160    -0.0310     6.4750 hn         1 GZ7       0.306700
     45 H022         1.3920    -0.5070     4.6940 h1         1 GZ7       0.096200
     46 H021        -0.0560    -0.5150     5.7090 h1         1 GZ7       0.096200
     47 H21          3.6460    -0.6400     0.3860 ho         1 GZ7       0.467000
     48 H031         1.1060     0.9380     7.3780 hc         1 GZ7       0.047200
     49 H032         2.5540     0.9450     6.3620 hc         1 GZ7       0.047200
     50 H042         0.9700     3.4020     7.1990 hc         1 GZ7       0.034700
     51 H041         2.4190     3.4070     6.1840 hc         1 GZ7       0.034700
     52 H051         2.2670     2.3900     9.0450 hc         1 GZ7       0.048200
     53 H052         3.7160     2.3960     8.0310 hc         1 GZ7       0.048200
     54 H061         3.5820     4.8600     7.8530 hc         1 GZ7       0.029200
     55 H062         2.1330     4.8540     8.8680 hc         1 GZ7       0.029200
     56 H7M1        -6.3130     0.8970     4.6820 hc         1 GZ7       0.060700
     57 H7M3        -6.4610     0.0060     3.1610 hc         1 GZ7       0.060700
     58 H7M2        -6.3180    -0.8720     4.6900 hc         1 GZ7       0.060700
     59 H081        -2.5700    -0.5410     7.4630 h1         1 GZ7       0.075700
     60 H091        -4.0980     2.0600     7.9510 hc         1 GZ7       0.055200
     61 H092        -2.3630     1.8490     7.5910 hc         1 GZ7       0.055200
@<TRIPOS>BOND
     1    15    27 1
     2    26    27 1
     3    26    23 1
     4    27    18 1
     5    23    21 1
     6    19    17 1
     7    21    20 1
     8    13    20 1
     9    13    16 1
    10    17     4 ar
    11    17    11 ar
    12     4     8 ar
    13    16    32 1
    14    11     1 ar
    15     8    32 1
    16     8    22 ar
    17    32    31 1
    18     1    22 ar
    19     1     2 1
    20    22    25 1
    21    31     7 2
    22    31    24 1
    23     7     6 1
    24    30     9 1
    25    30    29 1
    26    25    24 2
    27    24     3 1
    28     9    10 1
    29    29    12 1
    30    29    14 1
    31     6    14 2
    32     6     5 1
    33    12    10 1
    34     3     5 2
    35     5    28 1
    36     2    33 1
    37     3    34 1
    38     7    35 1
    39     9    36 1
    40     9    37 1
    41    10    38 1
    42    10    39 1
    43    12    40 1
    44    12    41 1
    45    13    42 1
    46    13    43 1
    47    14    44 1
    48    16    45 1
    49    16    46 1
    50    19    47 1
    51    20    48 1
    52    20    49 1
    53    21    50 1
    54    21    51 1
    55    23    52 1
    56    23    53 1
    57    26    54 1
    58    26    55 1
    59    28    56 1
    60    28    57 1
    61    28    58 1
    62    29    59 1
    63    30    60 1
    64    30    61 1
@<TRIPOS>SUBSTRUCTURE
     1 GZ7         1 TEMP              0 ****  ****    0 ROOT
