@<TRIPOS>MOLECULE
GZ7
   61    64     1     0     0
SMALL
bcc


@<TRIPOS>ATOM
      1 C4           0.0000     0.0000     0.0000 ca         1 GZ7       0.722300
      2 O4          -0.7010     0.0060    -1.1570 oh         1 GZ7      -0.537300
      3 C6          -3.9580     0.0060     2.7600 cc         1 GZ7      -0.093800
      4 N1           1.5020    -0.0010     2.3300 nb         1 GZ7      -0.698000
      5 C7          -4.5050     0.0050     4.0010 cd         1 GZ7      -0.222800
      6 C8          -3.7070    -0.0010     5.1560 cd         1 GZ7       0.299900
      7 C9          -2.3330    -0.0060     5.0770 cd         1 GZ7      -0.377600
      8 C10          0.1700    -0.0080     2.5000 ca         1 GZ7       0.294500
      9 C11         -2.9300     1.2850     9.6100 c3         1 GZ7      -0.020400
     10 C12         -3.6050    -0.0240    10.0590 c3         1 GZ7      -0.020400
     11 N3           1.3230     0.0000     0.0000 nb         1 GZ7      -0.794000
     12 C13         -4.2840    -0.6200     8.8070 c3         1 GZ7      -0.032400
     13 C01          0.7420     1.4430     5.3210 c3         1 GZ7      -0.043400
     14 N01         -4.3180    -0.0020     6.4060 nu         1 GZ7       0.049900
     15 O01          4.2850     3.3110    10.3870 o          1 GZ7      -0.889800
     16 C02          0.4580    -0.0020     4.9050 c3         1 GZ7      -0.117700
     17 C2           2.0280     0.0000     1.1250 ca         1 GZ7       0.963300
     18 O02          4.3110     5.5200    10.4380 o          1 GZ7      -0.889800
     19 O2           3.3780     0.0000     1.0240 oh         1 GZ7      -0.556300
     20 C03          1.6200     1.4500     6.5740 c3         1 GZ7      -0.021400
     21 C04          1.9050     2.8950     6.9880 c3         1 GZ7      -0.035400
     22 C4A         -0.6780    -0.0020     1.3010 ca         1 GZ7       0.031000
     23 C05          2.7820     2.9020     8.2410 c3         1 GZ7      -0.014400
     24 C5A         -2.5540     0.0020     2.6120 cc         1 GZ7       0.315100
     25 N5          -1.9940     0.0030     1.4060 nd         1 GZ7      -0.365000
     26 C06          3.0670     4.3480     8.6570 c3         1 GZ7      -0.133400
     27 C07          3.9320     4.3550     9.8910 c          1 GZ7       0.978600
     28 C7M         -6.0050     0.0090     4.1440 c3         1 GZ7       0.053100
     29 C08         -3.5000    -0.0080     7.6210 c3         1 GZ7      -0.087000
     30 C09         -3.2240     1.4380     8.1030 c3         1 GZ7      -0.032400
     31 C9A         -1.7120    -0.0040     3.8150 cc         1 GZ7      -0.166600
     32 N10         -0.3830    -0.0090     3.7070 na         1 GZ7       0.457100
     33 H41         -0.1310    -0.2300    -1.8700 ho         1 GZ7       0.440000
     34 H61         -4.5970     0.0110     1.8850 ha         1 GZ7       0.138000
     35 H91         -1.7340    -0.0110     5.9800 ha         1 GZ7       0.170000
     36 H111        -3.3480     2.1220    10.1560 hc         1 GZ7       0.028950
     37 H112        -1.8610     1.2240     9.7740 hc         1 GZ7       0.028950
     38 H121        -4.3480     0.1850    10.8190 hc         1 GZ7       0.028950
     39 H122        -2.8610    -0.7130    10.4390 hc         1 GZ7       0.028950
     40 H132        -5.3250    -0.3240     8.7650 hc         1 GZ7       0.023950
     41 H131        -4.1910    -1.7000     8.8050 hc         1 GZ7       0.023950
     42 H012         1.2560     1.9560     4.5170 hc         1 GZ7       0.027700
     43 H011        -0.1930     1.9490     5.5320 hc         1 GZ7       0.027700
     44 H013        -5.3160    -0.0310     6.4750 hn         1 GZ7       0.154700
     45 H022         1.3920    -0.5070     4.6940 h1         1 GZ7       0.071700
     46 H021        -0.0560    -0.5150     5.7090 h1         1 GZ7       0.071700
     47 H21          3.6460    -0.6400     0.3860 ho         1 GZ7       0.436000
     48 H031         1.1060     0.9380     7.3780 hc         1 GZ7       0.020700
     49 H032         2.5540     0.9450     6.3620 hc         1 GZ7       0.020700
     50 H042         0.9700     3.4020     7.1990 hc         1 GZ7       0.008200
     51 H041         2.4190     3.4070     6.1840 hc         1 GZ7       0.008200
     52 H051         2.2670     2.3900     9.0450 hc         1 GZ7       0.023200
     53 H052         3.7160     2.3960     8.0310 hc         1 GZ7       0.023200
     54 H061         3.5820     4.8600     7.8530 hc         1 GZ7       0.005700
     55 H062         2.1330     4.8540     8.8680 hc         1 GZ7       0.005700
     56 H7M1        -6.3130     0.8970     4.6820 hc         1 GZ7       0.022033
     57 H7M3        -6.4610     0.0060     3.1610 hc         1 GZ7       0.022033
     58 H7M2        -6.3180    -0.8720     4.6900 hc         1 GZ7       0.022033
     59 H081        -2.5700    -0.5410     7.4630 h1         1 GZ7       0.053700
     60 H091        -4.0980     2.0600     7.9510 hc         1 GZ7       0.023950
     61 H092        -2.3630     1.8490     7.5910 hc         1 GZ7       0.023950
@<TRIPOS>BOND
     1     1     2 1   
     2     1    11 ar  
     3     1    22 ar  
     4     2    33 1   
     5     3     5 2   
     6     3    24 1   
     7     3    34 1   
     8     4     8 ar  
     9     4    17 ar  
    10     5     6 1   
    11     5    28 1   
    12     6     7 1   
    13     6    14 2   
    14     7    31 2   
    15     7    35 1   
    16     8    22 ar  
    17     8    32 1   
    18     9    10 1   
    19     9    30 1   
    20     9    36 1   
    21     9    37 1   
    22    10    12 1   
    23    10    38 1   
    24    10    39 1   
    25    11    17 ar  
    26    12    29 1   
    27    12    40 1   
    28    12    41 1   
    29    13    16 1   
    30    13    20 1   
    31    13    42 1   
    32    13    43 1   
    33    14    29 1   
    34    14    44 1   
    35    15    27 1   
    36    16    32 1   
    37    16    45 1   
    38    16    46 1   
    39    17    19 1   
    40    18    27 1   
    41    19    47 1   
    42    20    21 1   
    43    20    48 1   
    44    20    49 1   
    45    21    23 1   
    46    21    50 1   
    47    21    51 1   
    48    22    25 1   
    49    23    26 1   
    50    23    52 1   
    51    23    53 1   
    52    24    25 2   
    53    24    31 1   
    54    26    27 1   
    55    26    54 1   
    56    26    55 1   
    57    28    56 1   
    58    28    57 1   
    59    28    58 1   
    60    29    30 1   
    61    29    59 1   
    62    30    60 1   
    63    30    61 1   
    64    31    32 1   
@<TRIPOS>SUBSTRUCTURE
     1 GZ7         1 TEMP              0 ****  ****    0 ROOT
