@<TRIPOS>MOLECULE
GZA
   37    40     1     0     0
SMALL
bcc


@<TRIPOS>ATOM
      1 C01          0.0000     0.0000     0.0000 c3         1 GZA       0.060600
      2 C02          1.5070     0.0000     0.0000 ca         1 GZA      -0.131300
      3 C03          2.1980     0.0000     1.1970 ca         1 GZA      -0.071500
      4 C04          3.5800    -0.0010     1.1980 ca         1 GZA      -0.102000
      5 C05          4.2720    -0.0030     0.0000 ca         1 GZA      -0.087000
      6 C06          3.5800    -0.0050    -1.1970 ca         1 GZA      -0.102000
      7 C07          2.1980    -0.0080    -1.1970 ca         1 GZA      -0.071500
      8 N08         -0.4880     1.3810    -0.0020 na         1 GZA       0.490400
      9 C09         -1.3470     1.9250    -0.9020 cc         1 GZA      -0.263300
     10 C10         -1.5430     3.2210    -0.5500 cd         1 GZA      -0.118200
     11 C11         -0.7810     3.4760     0.5980 cd         1 GZA       0.340200
     12 N12         -0.1540     2.3750     0.9280 nc         1 GZA      -0.631800
     13 O13         -2.3400     4.1150    -1.1990 os         1 GZA      -0.261700
     14 C14         -2.5100     5.3330    -0.6400 cc         1 GZA       0.521200
     15 N15         -3.3900     6.1940    -1.2240 ns         1 GZA      -0.003400
     16 C16         -3.5950     7.4270    -0.7010 c          1 GZA       0.632100
     17 C17         -2.8380     7.7820     0.5060 ca         1 GZA      -0.218600
     18 C18         -2.9590     9.0180     1.1390 ca         1 GZA      -0.120300
     19 C19         -2.2010     9.2560     2.2680 ca         1 GZA       0.362200
     20 N20         -1.3770     8.3420     2.7490 nb         1 GZA      -0.541000
     21 C21         -1.2220     7.1600     2.1930 ca         1 GZA       0.396200
     22 C22         -1.9460     6.8260     1.0440 ca         1 GZA       0.065100
     23 N23         -1.8270     5.6230     0.4360 nd         1 GZA      -0.623100
     24 O24         -4.3770     8.2090    -1.2100 o          1 GZA      -0.644500
     25 H01         -0.3610    -0.5120    -0.8840 h1         1 GZA       0.032200
     26 H01A        -0.3610    -0.5090     0.8850 h1         1 GZA       0.032200
     27 H03          1.6550     0.0020     2.1350 ha         1 GZA       0.107500
     28 H04          4.1220     0.0000     2.1360 ha         1 GZA       0.105000
     29 H05          5.3550    -0.0020     0.0000 ha         1 GZA       0.103000
     30 H06          4.1220    -0.0090    -2.1360 ha         1 GZA       0.105000
     31 H07          1.6560    -0.0090    -2.1350 ha         1 GZA       0.107500
     32 H09         -1.7950     1.4170    -1.7470 h4         1 GZA       0.150000
     33 H11         -0.7240     4.4200     1.1250 h4         1 GZA       0.077100
     34 HN15        -3.8890     5.9140    -2.0460 hn         1 GZA       0.189500
     35 H18         -3.6320     9.7740     0.7540 ha         1 GZA       0.131000
     36 H19         -2.2850    10.2110     2.7710 h4         1 GZA      -0.014900
     37 H21         -0.5330     6.4450     2.6260 h4         1 GZA      -0.002900
@<TRIPOS>BOND
     1     1     2 1   
     2     1     8 1   
     3     1    25 1   
     4     1    26 1   
     5     2     3 ar  
     6     2     7 ar  
     7     3     4 ar  
     8     3    27 1   
     9     4     5 ar  
    10     4    28 1   
    11     5     6 ar  
    12     5    29 1   
    13     6     7 ar  
    14     6    30 1   
    15     7    31 1   
    16     8     9 1   
    17     8    12 1   
    18     9    10 2   
    19     9    32 1   
    20    10    11 1   
    21    10    13 1   
    22    11    12 2   
    23    11    33 1   
    24    13    14 1   
    25    14    15 1   
    26    14    23 2   
    27    15    16 1   
    28    15    34 1   
    29    16    17 1   
    30    16    24 2   
    31    17    18 ar  
    32    17    22 ar  
    33    18    19 ar  
    34    18    35 1   
    35    19    20 ar  
    36    19    36 1   
    37    20    21 ar  
    38    21    22 ar  
    39    21    37 1   
    40    22    23 1   
@<TRIPOS>SUBSTRUCTURE
     1 GZA         1 TEMP              0 ****  ****    0 ROOT
