@<TRIPOS>MOLECULE
molecule
   52    53     1     0     0
SMALL
bcc


@<TRIPOS>ATOM
      1 NAA          0.0000     0.0000     0.0000 nz         1 GZC      -0.772600
      2 CAB          1.3750     0.0000     0.0000 c2         1 GZC       0.685600
      3 NAC          2.0630     0.0000     1.1930 nu         1 GZC      -0.732100
      4 CAD          3.4590    -0.1260     1.1950 ca         1 GZC       0.076600
      5 CAE          4.2130     0.5300     2.1630 ca         1 GZC      -0.092000
      6 CAF          5.5880     0.4110     2.1750 ca         1 GZC      -0.162500
      7 CAG         11.6100    -5.1580    -6.5050 ca         1 GZC      -0.162500
      8 CAH         11.3050    -4.9940    -7.8410 ca         1 GZC      -0.092000
      9 CAI         10.3660    -4.0470    -8.2360 ca         1 GZC       0.076600
     10 NAJ         10.0630    -3.8870    -9.5940 nu         1 GZC      -0.732100
     11 CAK          8.7590    -3.6980    -9.9910 c2         1 GZC       0.685600
     12 NAL          7.7400    -3.7880    -9.0710 nz         1 GZC      -0.772600
     13 NAM          2.0270    -0.0000    -1.1290 n2         1 GZC      -0.801100
     14 CAN          4.0840    -0.9090     0.2400 ca         1 GZC      -0.207000
     15 CAO          5.4750    -1.0330     0.2460 ca         1 GZC      -0.120400
     16 CAP          6.2280    -0.3640     1.2200 ca         1 GZC       0.176100
     17 OAQ          7.5800    -0.4800     1.2330 oh         1 GZC      -0.450100
     18 CAS         10.9810    -4.3800    -5.5460 ca         1 GZC       0.176100
     19 CAT         10.0370    -3.4190    -5.9350 ca         1 GZC      -0.120400
     20 CAU          9.7300    -3.2620    -7.2890 ca         1 GZC      -0.207000
     21 NAV          8.4880    -3.4330   -11.2380 n2         1 GZC      -0.801100
     22 CAW          6.1480    -1.8650    -0.7680 ce         1 GZC       0.439300
     23 NAX          7.4370    -1.9780    -0.7600 n2         1 GZC      -0.540400
     24 CAY          8.1060    -2.8050    -1.7680 c3         1 GZC       0.110300
     25 CAZ          8.9760    -1.9170    -2.6600 c3         1 GZC       0.110300
     26 NBA          9.6450    -2.7430    -3.6680 n2         1 GZC      -0.540400
     27 CBB          9.3650    -2.5880    -4.9220 ce         1 GZC       0.439300
     28 HNAA        -0.3340    -0.4050    -0.8520 hn         1 GZC       0.474633
     29 HNAB        -0.3340    -0.5360     0.7770 hn         1 GZC       0.474633
     30 HNAC         1.5640     0.0610     2.0580 hn         1 GZC       0.486300
     31 HAE          3.7180     1.1370     2.9110 ha         1 GZC       0.156500
     32 HAF          6.1680     0.9280     2.9300 ha         1 GZC       0.169000
     33 HAG         12.3460    -5.8950    -6.2050 ha         1 GZC       0.169000
     34 HAH         11.8000    -5.6060    -8.5860 ha         1 GZC       0.156500
     35 HNAJ        10.7790    -4.0140   -10.2820 hn         1 GZC       0.486300
     36 HNAL         7.9440    -4.5170    -8.4170 hn         1 GZC       0.474633
     37 HNAD         7.6520    -2.9180    -8.5840 hn         1 GZC       0.474633
     38 HNAM         3.0280    -0.0000    -1.1310 hn         1 GZC       0.468900
     39 HAN          3.4960    -1.4240    -0.5100 ha         1 GZC       0.155500
     40 HOAQ         7.8840    -0.5160     2.1250 ho         1 GZC       0.437000
     41 HOAR        12.2010    -4.7260    -4.1390 ho         1 GZC       0.437000
     42 HAU          9.5750    -2.2040    -7.4630 ha         1 GZC       0.155500
     43 HNAV         7.5400    -3.2950   -11.5270 hn         1 GZC       0.468900
     44 HAW          5.5640    -2.3810    -1.5200 h4         1 GZC      -0.028200
     45 HAY          7.3620    -3.3080    -2.3740 h1         1 GZC       0.060700
     46 HAYA         8.7290    -3.5420    -1.2750 h1         1 GZC       0.060700
     47 HAZ          8.3530    -1.1800    -3.1530 h1         1 GZC       0.060700
     48 HAZA         9.7200    -1.4150    -2.0540 h1         1 GZC       0.060700
     49 HBB          8.6350    -1.8470    -5.2260 h4         1 GZC      -0.028200
     50 HAA3        -0.3340     0.9390     0.0940 hn         1 GZC       0.474633
     51 HAL3         6.8830    -4.0000    -9.5420 hn         1 GZC       0.474633
     52 OAR         11.2800    -4.5460    -4.2320 oh         1 GZC      -0.450100
@<TRIPOS>BOND
     1    12    11 1
     2    21    11 2
     3    11    10 1
     4    10     9 1
     5     9    20 ar
     6     9     8 ar
     7    20    19 ar
     8     8     7 ar
     9    19    27 1
    10    19    18 ar
    11    27    26 2
    12     7    18 ar
    13    18    52 1
    14    26    25 1
    15    25    24 1
    16    24    23 1
    17    23    22 2
    18    17    16 1
    19    22    15 1
    20    16    15 ar
    21    16     6 ar
    22    15    14 ar
    23     6     5 ar
    24    14     4 ar
    25     5     4 ar
    26     4     3 1
    27     3     2 1
    28     2     1 1
    29     2    13 2
    30     1    28 1
    31     1    29 1
    32     3    30 1
    33     5    31 1
    34     6    32 1
    35     7    33 1
    36     8    34 1
    37    10    35 1
    38    12    36 1
    39    12    37 1
    40    13    38 1
    41    14    39 1
    42    17    40 1
    43    52    41 1
    44    20    42 1
    45    21    43 1
    46    22    44 1
    47    24    45 1
    48    24    46 1
    49    25    47 1
    50    25    48 1
    51    27    49 1
    52    50     1 1
    53    51    12 1
@<TRIPOS>SUBSTRUCTURE
     1 GZC         1 TEMP              0 ****  ****    0 ROOT
