@<TRIPOS>MOLECULE
GZC
   52    55     1     0     0
SMALL
bcc


@<TRIPOS>ATOM
      1 NAA          0.0000     0.0000     0.0000 nz         1 GZC       0.913000
      2 CAB          1.3750     0.0000     0.0000 c2         1 GZC      -0.350500
      3 NAC          2.0630     0.0000     1.1930 n7         1 GZC       0.201000
      4 CAD          3.4590    -0.1260     1.1950 c2         1 GZC      -0.192000
      5 CAE          4.2130     0.5300     2.1630 c2         1 GZC      -0.024000
      6 CAF          5.5880     0.4110     2.1750 c2         1 GZC      -0.162000
      7 CAG         11.6100    -5.1580    -6.5050 c2         1 GZC      -0.162000
      8 CAH         11.3050    -4.9940    -7.8410 c2         1 GZC      -0.024000
      9 CAI         10.3660    -4.0470    -8.2360 c2         1 GZC      -0.192000
     10 NAJ         10.0630    -3.8870    -9.5940 n7         1 GZC       0.201000
     11 CAK          8.7590    -3.6980    -9.9910 c2         1 GZC      -0.350500
     12 NAL          7.7400    -3.7880    -9.0710 nz         1 GZC       0.913000
     13 NAM          2.0270    -0.0000    -1.1290 n2         1 GZC      -0.082000
     14 CAN          4.0840    -0.9090     0.2400 c2         1 GZC      -0.061500
     15 CAO          5.4750    -1.0330     0.2460 c3         1 GZC      -0.184000
     16 CAP          6.2280    -0.3640     1.2200 c2         1 GZC       0.138000
     17 OAQ          7.5800    -0.4800     1.2330 oh         1 GZC      -0.193500
     18 CAS         10.9810    -4.3800    -5.5460 c2         1 GZC       0.138000
     19 CAT         10.0370    -3.4190    -5.9350 c3         1 GZC      -0.184000
     20 CAU          9.7300    -3.2620    -7.2890 c2         1 GZC      -0.061500
     21 NAV          8.4880    -3.4330   -11.2380 n2         1 GZC      -0.082000
     22 CAW          6.1480    -1.8650    -0.7680 c2         1 GZC      -0.388500
     23 NAX          7.4370    -1.9780    -0.7600 n2         1 GZC       0.039500
     24 CAY          8.1060    -2.8050    -1.7680 c3         1 GZC      -0.055500
     25 CAZ          8.9760    -1.9170    -2.6600 c3         1 GZC      -0.055500
     26 NBA          9.6450    -2.7430    -3.6680 n2         1 GZC       0.039500
     27 CBB          9.3650    -2.5880    -4.9220 c2         1 GZC      -0.388500
     28 HNAA        -0.3340     0.4490     0.8300 hn         1 GZC       0.026167
     29 HNAB        -0.3340    -0.9430    -0.0260 hn         1 GZC       0.026167
     30 HNAC         1.5620     0.0180     2.0590 hn         1 GZC       0.104000
     31 HAE          3.7180     1.1370     2.9110 ha         1 GZC       0.120000
     32 HAF          6.1680     0.9280     2.9300 ha         1 GZC       0.136500
     33 HAG         12.3390    -5.9010    -6.2040 ha         1 GZC       0.136500
     34 HAH         11.8020    -5.6030    -8.5860 ha         1 GZC       0.120000
     35 HNAJ        10.7790    -4.0150   -10.2820 hn         1 GZC       0.104000
     36 HNAL         7.6510    -2.9170    -8.5860 hn         1 GZC       0.026167
     37 HNAD         6.8830    -3.9960    -9.5430 hn         1 GZC       0.026167
     38 HNAM         1.5280    -0.0000    -1.9960 hn         1 GZC       0.118000
     39 HAN          3.4960    -1.4240    -0.5100 ha         1 GZC       0.144000
     40 HOAQ         7.8840    -0.5180     2.1250 ho         1 GZC       0.222000
     41 HOAR        12.1600    -4.8730    -4.1480 ho         1 GZC       0.222000
     42 HAU          9.4340    -2.2320    -7.4460 ha         1 GZC       0.144000
     43 HNAV         9.2290    -3.3680   -11.9090 hn         1 GZC       0.118000
     44 HAW          6.0970    -0.7830    -0.7990 DU         1 GZC       0.330000
     45 HAY          7.3620    -3.3080    -2.3740 h1         1 GZC       0.075000
     46 HAYA         8.7290    -3.5420    -1.2750 h1         1 GZC       0.075000
     47 HAZ          9.7200    -1.4150    -2.0540 h1         1 GZC       0.075000
     48 HAZA         8.3530    -1.1800    -3.1530 h1         1 GZC       0.075000
     49 HBB         10.3740    -2.4210    -5.2780 DU         1 GZC       0.330000
     50 HAA3        -0.3340     0.5000    -0.8000 hn         1 GZC       0.026167
     51 HAL3         7.9550    -4.5010    -8.4030 hn         1 GZC       0.026167
     52 OAR         11.2800    -4.5460    -4.2320 oh         1 GZC      -0.193500
@<TRIPOS>BOND
     1     1     2 1   
     2     1    28 1   
     3     1    29 1   
     4     1    50 1   
     5     2     3 1   
     6     2    13 1   
     7     3     4 1   
     8     3    30 1   
     9     4     5 1   
    10     4    14 1   
    11     5     6 1   
    12     5    31 1   
    13     6    16 1   
    14     6    32 1   
    15     7     8 1   
    16     7    18 1   
    17     7    33 1   
    18     8     9 1   
    19     8    34 1   
    20     9    10 1   
    21     9    20 1   
    22    10    11 1   
    23    10    35 1   
    24    11    12 1   
    25    11    21 1   
    26    12    36 1   
    27    12    37 1   
    28    12    51 1   
    29    13    38 1   
    30    14    15 1   
    31    14    39 1   
    32    15    16 1   
    33    15    22 1   
    34    15    44 1   
    35    16    17 1   
    36    17    40 1   
    37    18    19 1   
    38    18    52 1   
    39    19    20 1   
    40    19    27 1   
    41    19    49 1   
    42    20    42 1   
    43    21    43 1   
    44    22    23 1   
    45    22    44 1   
    46    23    24 1   
    47    24    25 1   
    48    24    45 1   
    49    24    46 1   
    50    25    26 1   
    51    25    47 1   
    52    25    48 1   
    53    26    27 1   
    54    27    49 1   
    55    41    52 1   
@<TRIPOS>SUBSTRUCTURE
     1 GZC         1 TEMP              0 ****  ****    0 ROOT
