@<TRIPOS>MOLECULE
GZD
   58    60     1     0     0
SMALL
bcc


@<TRIPOS>ATOM
      1 C4           0.0000     0.0000     0.0000 c3         1 GZD       0.015100
      2 C5           1.9580     0.0000     1.3850 c3         1 GZD      -0.015200
      3 C6           1.4490    -1.2480     2.1070 c3         1 GZD      -0.052400
      4 C7           1.9580    -1.2480     3.5490 c3         1 GZD      -0.017400
      5 C8           1.4470    -2.4970     4.2720 c3         1 GZD      -0.027400
      6 C13         -0.1220    -4.9760     8.4660 c3         1 GZD      -0.014067
      7 C15         -0.1610    -6.2690    10.6020 c3         1 GZD      -0.016067
      8 C17          1.8990    -5.0230     9.9350 c3         1 GZD      -0.014067
      9 C20         -0.1410    -7.4730     8.4130 c3         1 GZD      -0.016067
     10 C21          1.9170    -6.2260     7.7460 c3         1 GZD      -0.014067
     11 C1           1.9580    -1.2010    -0.6910 c3         1 GZD       0.015100
     12 C11          1.9380    -3.7280     7.7990 c3         1 GZD       0.150800
     13 C12          1.4080    -4.9870     8.4860 c3         1 GZD      -0.059000
     14 C14         -0.6520    -6.2350     9.1530 c3         1 GZD      -0.038700
     15 C16          1.3690    -6.2830    10.6230 c3         1 GZD      -0.038700
     16 C18          1.8790    -7.5200     9.8820 c3         1 GZD      -0.016067
     17 C19          1.3870    -7.4860     8.4330 c3         1 GZD      -0.038700
     18 C3           1.9590     1.1980    -0.6930 c3         1 GZD       0.015100
     19 C9           1.9570    -2.4950     5.7140 c3         1 GZD       0.146800
     20 N10          1.4670    -3.6950     6.4070 n7         1 GZD      -0.593200
     21 N2           1.4690     0.0000     0.0000 n4         1 GZD       0.050200
     22 H1          -0.3610     0.6470     0.7900 hx         1 GZD       0.073256
     23 H2          -0.3610     0.3610    -0.9560 hx         1 GZD       0.073256
     24 H3          -0.3610    -1.0080     0.1660 hx         1 GZD       0.073256
     25 H4           1.5970     0.8850     1.8960 hx         1 GZD       0.079200
     26 H5           3.0410     0.0000     1.3860 hx         1 GZD       0.079200
     27 H6           1.8100    -2.1330     1.5970 hc         1 GZD       0.036700
     28 H7           0.3650    -1.2490     2.1070 hc         1 GZD       0.036700
     29 H8           3.0410    -1.2480     3.5500 hc         1 GZD       0.026200
     30 H9           1.5970    -0.3630     4.0590 hc         1 GZD       0.026200
     31 H10          1.8080    -3.3820     3.7620 hc         1 GZD       0.023700
     32 H11          0.3640    -2.4960     4.2720 hc         1 GZD       0.023700
     33 H13         -0.4690    -4.9510     7.4400 hc         1 GZD       0.017367
     34 H14         -0.5370    -7.1610    11.0900 hc         1 GZD       0.016867
     35 H15         -0.5220    -5.3930    11.1260 hc         1 GZD       0.016867
     36 H16          2.9820    -5.0320     9.9490 hc         1 GZD       0.017367
     37 H17          1.5380    -4.1460    10.4590 hc         1 GZD       0.017367
     38 H18         -0.4890    -7.4500     7.3870 hc         1 GZD       0.016867
     39 H19         -0.5160    -8.3650     8.9010 hc         1 GZD       0.016867
     40 H20          1.5710    -6.2020     6.7200 hc         1 GZD       0.017367
     41 H21          3.0010    -6.2350     7.7600 hc         1 GZD       0.017367
     42 H22          1.3330    -2.0460    -0.4330 hx         1 GZD       0.073256
     43 H23          2.9790    -1.4010    -0.3890 hx         1 GZD       0.073256
     44 H24          1.9240    -1.0400    -1.7620 hx         1 GZD       0.073256
     45 H25          1.5770    -2.8510     8.3230 h1         1 GZD       0.011700
     46 H26          3.0210    -3.7370     7.8130 h1         1 GZD       0.011700
     47 H27         -1.7350    -6.2260     9.1380 hc         1 GZD       0.025700
     48 H28          1.7160    -6.3070    11.6490 hc         1 GZD       0.025700
     49 H29          1.5050    -8.4130    10.3690 hc         1 GZD       0.016867
     50 H30          2.9620    -7.5290     9.8960 hc         1 GZD       0.016867
     51 H31          1.7480    -8.3620     7.9080 hc         1 GZD       0.025700
     52 H32          3.0430     1.1980    -0.6930 hx         1 GZD       0.073256
     53 H33          1.5990     2.0830    -0.1830 hx         1 GZD       0.073256
     54 H34          1.5980     1.1980    -1.7150 hx         1 GZD       0.073256
     55 H35          3.0400    -2.4950     5.7150 h1         1 GZD       0.009200
     56 H36          1.5950    -1.6110     6.2240 h1         1 GZD       0.009200
     57 H37          1.7880    -4.5120     5.9260 hn         1 GZD       0.262800
     58 H12         -0.4830    -4.0990     8.9900 hc         1 GZD       0.017367
@<TRIPOS>BOND
     1     1    21 1   
     2     1    22 1   
     3     1    23 1   
     4     1    24 1   
     5     2     3 1   
     6     2    21 1   
     7     2    25 1   
     8     2    26 1   
     9     3     4 1   
    10     3    27 1   
    11     3    28 1   
    12     4     5 1   
    13     4    29 1   
    14     4    30 1   
    15     5    19 1   
    16     5    31 1   
    17     5    32 1   
    18     6    13 1   
    19     6    14 1   
    20     6    33 1   
    21     6    58 1   
    22     7    14 1   
    23     7    15 1   
    24     7    34 1   
    25     7    35 1   
    26     8    13 1   
    27     8    15 1   
    28     8    36 1   
    29     8    37 1   
    30     9    14 1   
    31     9    17 1   
    32     9    38 1   
    33     9    39 1   
    34    10    13 1   
    35    10    17 1   
    36    10    40 1   
    37    10    41 1   
    38    11    21 1   
    39    11    42 1   
    40    11    43 1   
    41    11    44 1   
    42    12    13 1   
    43    12    20 1   
    44    12    45 1   
    45    12    46 1   
    46    14    47 1   
    47    15    16 1   
    48    15    48 1   
    49    16    17 1   
    50    16    49 1   
    51    16    50 1   
    52    17    51 1   
    53    18    21 1   
    54    18    52 1   
    55    18    53 1   
    56    18    54 1   
    57    19    20 1   
    58    19    55 1   
    59    19    56 1   
    60    20    57 1   
@<TRIPOS>SUBSTRUCTURE
     1 GZD         1 TEMP              0 ****  ****    0 ROOT
