@<TRIPOS>MOLECULE
molecule
   58    60     1     0     0
SMALL
bcc


@<TRIPOS>ATOM
      1 C4           0.0000     0.0000     0.0000 c3         1 GZD       0.093767
      2 C5           1.9580     0.0000     1.3850 c3         1 GZD       0.101800
      3 C6           1.4490    -1.2480     2.1070 c3         1 GZD      -0.109400
      4 C7           1.9580    -1.2480     3.5490 c3         1 GZD      -0.078400
      5 C8           1.4470    -2.4970     4.2720 c3         1 GZD      -0.081400
      6 C13         -0.1220    -4.9760     8.4660 c3         1 GZD      -0.061400
      7 C15         -0.1610    -6.2690    10.6020 c3         1 GZD      -0.068067
      8 C17          1.8990    -5.0230     9.9350 c3         1 GZD      -0.061400
      9 C20         -0.1410    -7.4730     8.4130 c3         1 GZD      -0.068067
     10 C21          1.9170    -6.2260     7.7460 c3         1 GZD      -0.061400
     11 C1           1.9580    -1.2010    -0.6910 c3         1 GZD       0.093767
     12 C11          1.9380    -3.7280     7.7990 c3         1 GZD       0.164800
     13 C12          1.4080    -4.9870     8.4860 c3         1 GZD      -0.056000
     14 C14         -0.6520    -6.2350     9.1530 c3         1 GZD      -0.064367
     15 C16          1.3690    -6.2830    10.6230 c3         1 GZD      -0.064367
     16 C18          1.8790    -7.5200     9.8820 c3         1 GZD      -0.068067
     17 C19          1.3870    -7.4860     8.4330 c3         1 GZD      -0.064367
     18 C3           1.9590     1.1980    -0.6930 c3         1 GZD       0.093767
     19 C9           1.9570    -2.4950     5.7140 c3         1 GZD       0.158800
     20 N10          1.4670    -3.6950     6.4070 n7         1 GZD      -0.819200
     21 N2           1.4690     0.0000     0.0000 n4         1 GZD      -0.576800
     22 H1          -0.3610     0.6470     0.7900 hx         1 GZD       0.098811
     23 H2          -0.3610     0.3610    -0.9560 hx         1 GZD       0.098811
     24 H3          -0.3610    -1.0080     0.1660 hx         1 GZD       0.098811
     25 H4           1.5970     0.8850     1.8960 hx         1 GZD       0.101200
     26 H5           3.0410     0.0000     1.3860 hx         1 GZD       0.101200
     27 H6           1.8100    -2.1330     1.5970 hc         1 GZD       0.062700
     28 H7           0.3650    -1.2490     2.1070 hc         1 GZD       0.062700
     29 H8           3.0410    -1.2480     3.5500 hc         1 GZD       0.055200
     30 H9           1.5970    -0.3630     4.0590 hc         1 GZD       0.055200
     31 H10          1.8080    -3.3820     3.7620 hc         1 GZD       0.053700
     32 H11          0.3640    -2.4960     4.2720 hc         1 GZD       0.053700
     33 H13         -0.4690    -4.9510     7.4400 hc         1 GZD       0.041867
     34 H14         -0.5370    -7.1610    11.0900 hc         1 GZD       0.043200
     35 H15         -0.5220    -5.3930    11.1260 hc         1 GZD       0.043200
     36 H16          2.9820    -5.0320     9.9490 hc         1 GZD       0.041867
     37 H17          1.5380    -4.1460    10.4590 hc         1 GZD       0.041867
     38 H18         -0.4890    -7.4500     7.3870 hc         1 GZD       0.043200
     39 H19         -0.5160    -8.3650     8.9010 hc         1 GZD       0.043200
     40 H20          1.5710    -6.2020     6.7200 hc         1 GZD       0.041867
     41 H21          3.0010    -6.2350     7.7600 hc         1 GZD       0.041867
     42 H22          1.3330    -2.0460    -0.4330 hx         1 GZD       0.098811
     43 H23          2.9790    -1.4010    -0.3890 hx         1 GZD       0.098811
     44 H24          1.9240    -1.0400    -1.7620 hx         1 GZD       0.098811
     45 H25          1.5770    -2.8510     8.3230 h1         1 GZD       0.035700
     46 H26          3.0210    -3.7370     7.8130 h1         1 GZD       0.035700
     47 H27         -1.7350    -6.2260     9.1380 hc         1 GZD       0.051033
     48 H28          1.7160    -6.3070    11.6490 hc         1 GZD       0.051033
     49 H29          1.5050    -8.4130    10.3690 hc         1 GZD       0.043200
     50 H30          2.9620    -7.5290     9.8960 hc         1 GZD       0.043200
     51 H31          1.7480    -8.3620     7.9080 hc         1 GZD       0.051033
     52 H32          3.0430     1.1980    -0.6930 hx         1 GZD       0.098811
     53 H33          1.5990     2.0830    -0.1830 hx         1 GZD       0.098811
     54 H34          1.5980     1.1980    -1.7150 hx         1 GZD       0.098811
     55 H35          3.0400    -2.4950     5.7150 h1         1 GZD       0.034700
     56 H36          1.5950    -1.6110     6.2240 h1         1 GZD       0.034700
     57 H37          1.7880    -4.5120     5.9260 hn         1 GZD       0.356800
     58 H12         -0.4830    -4.0990     8.9900 hc         1 GZD       0.041867
@<TRIPOS>BOND
     1     1    21 1
     2    11    21 1
     3    21    18 1
     4    21     2 1
     5     2     3 1
     6     3     4 1
     7     4     5 1
     8     5    19 1
     9    19    20 1
    10    20    12 1
    11    12    13 1
    12     8    13 1
    13     8    15 1
    14    13     6 1
    15    13    10 1
    16     6    14 1
    17    10    17 1
    18    15     7 1
    19    15    16 1
    20     7    14 1
    21    16    17 1
    22    14     9 1
    23    17     9 1
    24     1    22 1
    25     1    23 1
    26     1    24 1
    27     2    25 1
    28     2    26 1
    29     3    27 1
    30     3    28 1
    31     4    29 1
    32     4    30 1
    33     5    31 1
    34     5    32 1
    35     6    58 1
    36     6    33 1
    37     7    34 1
    38     7    35 1
    39     8    36 1
    40     8    37 1
    41     9    38 1
    42     9    39 1
    43    10    40 1
    44    10    41 1
    45    11    42 1
    46    11    43 1
    47    11    44 1
    48    12    45 1
    49    12    46 1
    50    14    47 1
    51    15    48 1
    52    16    49 1
    53    16    50 1
    54    17    51 1
    55    18    52 1
    56    18    53 1
    57    18    54 1
    58    19    55 1
    59    19    56 1
    60    20    57 1
@<TRIPOS>SUBSTRUCTURE
     1 GZD         1 TEMP              0 ****  ****    0 ROOT
