@<TRIPOS>MOLECULE
GZG
   60    63     1     0     0
SMALL
bcc


@<TRIPOS>ATOM
      1 C4           0.0000     0.0000     0.0000 c3         1 GZG       0.126800
      2 C5           1.5300     0.0000     0.0000 c3         1 GZG      -0.082700
      3 C6           2.2540    -0.4470     2.3220 ca         1 GZG      -0.165600
      4 C7           2.7250     0.0000     3.5760 ca         1 GZG       0.221600
      5 C8           2.7430     2.1880     2.8650 cc         1 GZG       0.207800
      6 C9           2.9820     3.6330     3.0790 c          1 GZG       0.530000
      7 C10          2.2850     3.9890     0.8660 c          1 GZG       0.731900
      8 C11          2.2520     1.7750     1.5400 cc         1 GZG      -0.117600
      9 C12          2.9580    -0.9410     4.6000 ca         1 GZG      -0.077300
     10 C13          2.7270    -2.2630     4.3730 ca         1 GZG      -0.117300
     11 C14          2.9770    -3.2630     5.4720 c3         1 GZG       0.064200
     12 C15          2.2630    -2.7020     3.1370 ca         1 GZG      -0.007300
     13 C16          2.0160    -4.1710     2.9110 c3         1 GZG       0.047200
     14 N1           2.0190     0.4530     1.3050 na         1 GZG       0.404900
     15 C19         -2.2160    -1.9930    -0.5610 ca         1 GZG      -0.078300
     16 O1          -0.3950    -0.9890    -6.2480 o          1 GZG      -0.904800
     17 C20         -2.1500    -3.1890    -1.2510 ca         1 GZG      -0.090000
     18 C17          2.0320    -1.8070     2.1160 ca         1 GZG      -0.162000
     19 O            0.4340     0.7800    -7.2810 o          1 GZG      -0.904800
     20 C            0.0600     0.1270    -6.1690 c          1 GZG       0.980600
     21 C1           0.2070     0.7870    -4.8220 c3         1 GZG      -0.133400
     22 C2          -0.2890    -0.1650    -3.7310 c3         1 GZG      -0.019400
     23 N           -0.4890    -0.4550    -1.3070 n3         1 GZG      -0.526600
     24 C24         -2.5410    -1.9880     0.7830 ca         1 GZG      -0.090000
     25 C23         -2.8010    -3.1790     1.4360 ca         1 GZG      -0.110500
     26 C22         -2.7360    -4.3740     0.7450 ca         1 GZG      -0.117000
     27 C21         -2.4100    -4.3790    -0.5980 ca         1 GZG      -0.110500
     28 N2           2.9530     1.3000     3.8030 nd         1 GZG      -0.393000
     29 N4           2.0530     2.7030     0.6190 nd         1 GZG      -0.370400
     30 N3           2.7320     4.4610     2.0380 ns         1 GZG      -0.177500
     31 H1          -0.3610    -0.6680     0.7730 h1         1 GZG       0.020200
     32 H2          -0.3610     1.0030     0.1920 h1         1 GZG       0.020200
     33 H3           1.8920    -1.0030    -0.1920 h1         1 GZG       0.070200
     34 H4           1.8920     0.6680    -0.7730 h1         1 GZG       0.070200
     35 H5           3.3210    -0.3710     5.4470 ha         1 GZG       0.135000
     36 H6           3.3280    -2.7460     6.3570 hc         1 GZG       0.010033
     37 H7           2.0570    -3.7860     5.7000 hc         1 GZG       0.010033
     38 H8           3.7270    -3.9750     5.1490 hc         1 GZG       0.010033
     39 H9           2.9330    -4.7220     3.0780 hc         1 GZG       0.018367
     40 H10          1.6810    -4.3280     1.8930 hc         1 GZG       0.018367
     41 H11          1.2550    -4.5190     3.5990 hc         1 GZG       0.018367
     42 H12         -1.8950    -3.1930    -2.3040 ha         1 GZG       0.114500
     43 H13          2.3280    -2.2440     1.1700 ha         1 GZG       0.143000
     44 H14         -2.3200    -0.7490    -2.2850 h1         1 GZG       0.026700
     45 H15         -2.4260     0.1170    -0.7470 h1         1 GZG       0.026700
     46 H17          1.2500     1.0240    -4.6480 hc         1 GZG       0.007700
     47 H18         -0.3790     1.6980    -4.8010 hc         1 GZG       0.007700
     48 H19          0.2970    -1.0760    -3.7530 hc         1 GZG       0.025200
     49 H20         -1.3320    -0.4020    -3.9060 hc         1 GZG       0.025200
     50 H21          0.8850     0.8300    -2.2310 h1         1 GZG       0.013700
     51 H22         -0.8010     1.3610    -2.3070 h1         1 GZG       0.013700
     52 H24         -2.5920    -1.0510     1.3240 ha         1 GZG       0.114500
     53 H25         -3.0560    -3.1750     2.4890 ha         1 GZG       0.097500
     54 H26         -2.9390    -5.3070     1.2570 ha         1 GZG       0.093000
     55 H27         -2.3590    -5.3160    -1.1400 ha         1 GZG       0.097500
     56 H28          2.8820     5.4450     2.1460 hn         1 GZG       0.200500
     57 O2           2.0790     4.7890    -0.0310 o          1 GZG      -0.648500
     58 O3           3.3870     4.0580     4.1430 o          1 GZG      -0.635500
     59 C18         -1.9390    -0.6950    -1.2730 c3         1 GZG       0.196100
     60 C3          -0.1400     0.5050    -2.3640 c3         1 GZG       0.123800
@<TRIPOS>BOND
     1     1     2 1   
     2     1    23 1   
     3     1    31 1   
     4     1    32 1   
     5     2    14 1   
     6     2    33 1   
     7     2    34 1   
     8     3     4 ar  
     9     3    14 1   
    10     3    18 ar  
    11     4     9 ar  
    12     4    28 1   
    13     5     6 1   
    14     5     8 1   
    15     5    28 2   
    16     6    30 1   
    17     6    58 2   
    18     7    29 1   
    19     7    30 1   
    20     7    57 2   
    21     8    14 1   
    22     8    29 2   
    23     9    10 ar  
    24     9    35 1   
    25    10    11 1   
    26    10    12 ar  
    27    11    36 1   
    28    11    37 1   
    29    11    38 1   
    30    12    13 1   
    31    12    18 ar  
    32    13    39 1   
    33    13    40 1   
    34    13    41 1   
    35    15    17 ar  
    36    15    24 ar  
    37    15    59 1   
    38    16    20 1   
    39    17    27 ar  
    40    17    42 1   
    41    18    43 1   
    42    19    20 1   
    43    20    21 1   
    44    21    22 1   
    45    21    46 1   
    46    21    47 1   
    47    22    48 1   
    48    22    49 1   
    49    22    60 1   
    50    23    59 1   
    51    23    60 1   
    52    24    25 ar  
    53    24    52 1   
    54    25    26 ar  
    55    25    53 1   
    56    26    27 ar  
    57    26    54 1   
    58    27    55 1   
    59    30    56 1   
    60    44    59 1   
    61    45    59 1   
    62    50    60 1   
    63    51    60 1   
@<TRIPOS>SUBSTRUCTURE
     1 GZG         1 TEMP              0 ****  ****    0 ROOT
