@<TRIPOS>MOLECULE
molecule
   60    63     1     0     0
SMALL
bcc


@<TRIPOS>ATOM
      1 C4           0.0000     0.0000     0.0000 c3         1 GZG       0.140800
      2 C5           1.5300     0.0000     0.0000 c3         1 GZG       0.032300
      3 C6           2.2540    -0.4470     2.3220 ca         1 GZG      -0.004600
      4 C7           2.7250     0.0000     3.5760 ca         1 GZG       0.278600
      5 C8           2.7430     2.1880     2.8650 cc         1 GZG       0.284800
      6 C9           2.9820     3.6330     3.0790 c          1 GZG       0.617000
      7 C10          2.2850     3.9890     0.8660 c          1 GZG       0.852900
      8 C11          2.2520     1.7750     1.5400 cc         1 GZG       0.079400
      9 C12          2.9580    -0.9410     4.6000 ca         1 GZG      -0.103300
     10 C13          2.7270    -2.2630     4.3730 ca         1 GZG      -0.114300
     11 C14          2.9770    -3.2630     5.4720 c3         1 GZG      -0.042800
     12 C15          2.2630    -2.7020     3.1370 ca         1 GZG      -0.008300
     13 C16          2.0160    -4.1710     2.9110 c3         1 GZG      -0.055800
     14 N1           2.0190     0.4530     1.3050 na         1 GZG      -0.070100
     15 C19         -2.2160    -1.9930    -0.5610 ca         1 GZG      -0.071300
     16 O1          -0.3950    -0.9890    -6.2480 o          1 GZG      -0.855300
     17 C20         -2.1500    -3.1890    -1.2510 ca         1 GZG      -0.115500
     18 C17          2.0320    -1.8070     2.1160 ca         1 GZG      -0.179000
     19 O            0.4340     0.7800    -7.2810 o          1 GZG      -0.855300
     20 C            0.0600     0.1270    -6.1690 c          1 GZG       0.891600
     21 C1           0.2070     0.7870    -4.8220 c3         1 GZG      -0.184400
     22 C2          -0.2890    -0.1650    -3.7310 c3         1 GZG      -0.062400
     23 N           -0.4890    -0.4550    -1.3070 n3         1 GZG      -0.724600
     24 C24         -2.5410    -1.9880     0.7830 ca         1 GZG      -0.115500
     25 C23         -2.8010    -3.1790     1.4360 ca         1 GZG      -0.137500
     26 C22         -2.7360    -4.3740     0.7450 ca         1 GZG      -0.141000
     27 C21         -2.4100    -4.3790    -0.5980 ca         1 GZG      -0.137500
     28 N2           2.9530     1.3000     3.8030 nd         1 GZG      -0.545000
     29 N4           2.0530     2.7030     0.6190 nd         1 GZG      -0.447400
     30 N3           2.7320     4.4610     2.0380 ns         1 GZG      -0.593500
     31 H1          -0.3610    -0.6680     0.7730 h1         1 GZG       0.042200
     32 H2          -0.3610     1.0030     0.1920 h1         1 GZG       0.042200
     33 H3           1.8920    -1.0030    -0.1920 h1         1 GZG       0.093700
     34 H4           1.8920     0.6680    -0.7730 h1         1 GZG       0.093700
     35 H5           3.3210    -0.3710     5.4470 ha         1 GZG       0.169000
     36 H6           3.3280    -2.7460     6.3570 hc         1 GZG       0.044700
     37 H7           2.0570    -3.7860     5.7000 hc         1 GZG       0.044700
     38 H8           3.7270    -3.9750     5.1490 hc         1 GZG       0.044700
     39 H9           2.9330    -4.7220     3.0780 hc         1 GZG       0.054700
     40 H10          1.6810    -4.3280     1.8930 hc         1 GZG       0.054700
     41 H11          1.2550    -4.5190     3.5990 hc         1 GZG       0.054700
     42 H12         -1.8950    -3.1930    -2.3040 ha         1 GZG       0.139500
     43 H13          2.3280    -2.2440     1.1700 ha         1 GZG       0.162000
     44 H14         -2.3200    -0.7490    -2.2850 h1         1 GZG       0.051700
     45 H15         -2.4260     0.1170    -0.7470 h1         1 GZG       0.051700
     46 H17          1.2500     1.0240    -4.6480 hc         1 GZG       0.030700
     47 H18         -0.3790     1.6980    -4.8010 hc         1 GZG       0.030700
     48 H19          0.2970    -1.0760    -3.7530 hc         1 GZG       0.049700
     49 H20         -1.3320    -0.4020    -3.9060 hc         1 GZG       0.049700
     50 H21          0.8850     0.8300    -2.2310 h1         1 GZG       0.034200
     51 H22         -0.8010     1.3610    -2.3070 h1         1 GZG       0.034200
     52 H24         -2.5920    -1.0510     1.3240 ha         1 GZG       0.139500
     53 H25         -3.0560    -3.1750     2.4890 ha         1 GZG       0.122500
     54 H26         -2.9390    -5.3070     1.2570 ha         1 GZG       0.117000
     55 H27         -2.3590    -5.3160    -1.1400 ha         1 GZG       0.122500
     56 H28          2.8820     5.4450     2.1460 hn         1 GZG       0.350500
     57 O2           2.0790     4.7890    -0.0310 o          1 GZG      -0.602500
     58 O3           3.3870     4.0580     4.1430 o          1 GZG      -0.586500
     59 C18         -1.9390    -0.6950    -1.2730 c3         1 GZG       0.206100
     60 C3          -0.1400     0.5050    -2.3640 c3         1 GZG       0.142800
@<TRIPOS>BOND
     1    11    10 1
     2    10     9 ar
     3    10    12 ar
     4    13    12 1
     5     9     4 ar
     6    12    18 ar
     7     4    28 1
     8     4     3 ar
     9    18     3 ar
    10    28     5 2
    11     3    14 1
    12    58     6 2
    13     5     6 1
    14     5     8 1
    15     6    30 1
    16    14     8 1
    17    14     2 1
    18     8    29 2
    19     2     1 1
    20    30     7 1
    21     1    23 1
    22    29     7 1
    23    17    27 ar
    24    17    15 ar
    25    27    26 ar
    26     7    57 2
    27    59    23 1
    28    59    15 1
    29    22    21 1
    30    22    60 1
    31    21    20 1
    32    23    60 1
    33    15    24 ar
    34    26    25 ar
    35    16    20 1
    36    20    19 1
    37    24    25 ar
    38     1    31 1
    39     1    32 1
    40     2    33 1
    41     2    34 1
    42     9    35 1
    43    11    36 1
    44    11    37 1
    45    11    38 1
    46    13    39 1
    47    13    40 1
    48    13    41 1
    49    17    42 1
    50    18    43 1
    51    59    44 1
    52    59    45 1
    53    21    46 1
    54    21    47 1
    55    22    48 1
    56    22    49 1
    57    60    50 1
    58    60    51 1
    59    24    52 1
    60    25    53 1
    61    26    54 1
    62    27    55 1
    63    30    56 1
@<TRIPOS>SUBSTRUCTURE
     1 GZG         1 TEMP              0 ****  ****    0 ROOT
