@<TRIPOS>MOLECULE
GZL
   24    24     1     0     0
SMALL
bcc


@<TRIPOS>ATOM
      1 C1         -0.0460   -0.1130    0.1360 c3        1 GZL      0.093400
      2 C2          1.4800   -0.0620    0.0100 c3        1 GZL      0.136100
      3 C3          2.1240   -0.1200    1.4000 c3        1 GZL      0.145100
      4 C4          3.6500    0.1040    1.3480 c3        1 GZL      0.121100
      5 C5          3.9310    1.2040    2.3950 c3        1 GZL      0.053100
      6 O1         -0.5540   -0.0220   -1.1860 oh        1 GZL     -0.616800
      7 O2          1.9010    1.1280   -0.6350 oh        1 GZL     -0.601800
      8 O3          1.5480    0.8800    2.2500 os        1 GZL     -0.441600
      9 O4          4.2680   -1.1150    1.7100 oh        1 GZL     -0.596800
     10 C6          2.5380    1.7780    2.7440 c3        1 GZL      0.310900
     11 O5          4.7750    2.1650    1.7990 oh        1 GZL     -0.583800
     12 O6          2.2960    1.8360    4.1220 oh        1 GZL     -0.604800
     13 H11        -0.4060    0.7480    0.7600 h1        1 GZL      0.047700
     14 H12        -0.3640   -1.0810    0.6030 h1        1 GZL      0.047700
     15 H1         -1.5020    0.1300   -1.1100 ho        1 GZL      0.411000
     16 H21         1.8410   -0.9480   -0.5880 h1        1 GZL      0.055700
     17 H31         1.8820   -1.1140    1.8700 h1        1 GZL      0.082700
     18 H2          1.3420    1.2310   -1.4170 ho        1 GZL      0.424000
     19 H41         3.9810    0.4400    0.3280 h1        1 GZL      0.097700
     20 H4          5.2130   -1.0020    1.5520 ho        1 GZL      0.415000
     21 H51         4.4190    0.7740    3.3120 h1        1 GZL      0.065700
     22 H61         2.3630    2.8080    2.3330 h2        1 GZL      0.105700
     23 H5          4.8530    2.8950    2.4260 ho        1 GZL      0.413000
     24 H6          2.1080    0.9420    4.4370 ho        1 GZL      0.420000
@<TRIPOS>BOND
     1    1    2 1   
     2    1    6 1   
     3    1   13 1   
     4    1   14 1   
     5    2    3 1   
     6    2    7 1   
     7    2   16 1   
     8    3    4 1   
     9    3    8 1   
    10    3   17 1   
    11    4    5 1   
    12    4    9 1   
    13    4   19 1   
    14    5   10 1   
    15    5   11 1   
    16    5   21 1   
    17    6   15 1   
    18    7   18 1   
    19    8   10 1   
    20    9   20 1   
    21   10   12 1   
    22   10   22 1   
    23   11   23 1   
    24   12   24 1   
@<TRIPOS>SUBSTRUCTURE
     1 GZL         1 TEMP              0 ****  ****    0 ROOT
