@<TRIPOS>MOLECULE
molecule
   24    24     1     0     0
SMALL
bcc


@<TRIPOS>ATOM
      1 C1           0.0000     0.0000     0.0000 c3         1 GZL       0.113400
      2 C2           1.5300     0.0000     0.0000 c3         1 GZL       0.152100
      3 C3           2.0400     0.0000     1.4420 c3         1 GZL       0.140100
      4 C4           3.5750     0.1270     1.4550 c3         1 GZL       0.115100
      5 C5           3.8430     1.4100     2.2790 c3         1 GZL       0.105100
      6 O1          -0.4770    -0.1170    -1.3430 oh         1 GZL      -0.622800
      7 O2           2.0060     1.1680    -0.6740 oh         1 GZL      -0.584800
      8 O3           1.5110     1.1350     2.1480 os         1 GZL      -0.401600
      9 O4           4.1650    -1.0080     2.0920 oh         1 GZL      -0.589800
     10 C6           2.5260     1.5610     3.0820 c3         1 GZL       0.313900
     11 O5           4.0480     2.5330     1.4200 oh         1 GZL      -0.572800
     12 O6           2.5390     0.7130     4.2330 oh         1 GZL      -0.604800
     13 H11         -0.3610    -0.8370     0.5860 h1         1 GZL       0.040200
     14 H12         -0.3610     0.9260     0.4320 h1         1 GZL       0.040200
     15 H1          -1.4110    -0.2400    -1.3350 ho         1 GZL       0.406000
     16 H21          1.8920    -0.8840    -0.5110 h1         1 GZL       0.042700
     17 H31          1.7430    -0.9140     1.9430 h1         1 GZL       0.076700
     18 H2           2.0420     1.0030    -1.6010 ho         1 GZL       0.407000
     19 H41          3.9520     0.2410     0.4460 h1         1 GZL       0.069700
     20 H4           4.8350    -1.3690     1.5340 ho         1 GZL       0.402000
     21 H51          4.6850     1.2680     2.9460 h1         1 GZL       0.066700
     22 H61          2.3710     2.5950     3.3640 h2         1 GZL       0.075700
     23 H5           4.8180     3.0030     1.6950 ho         1 GZL       0.401000
     24 H6           2.0960     1.1440     4.9460 ho         1 GZL       0.409000
@<TRIPOS>BOND
     1     1     2 1
     2     1     6 1
     3     2     3 1
     4     2     7 1
     5     2    16 1
     6     3     4 1
     7     3     8 1
     8     4     5 1
     9     4     9 1
    10     4    19 1
    11     5    10 1
    12     5    11 1
    13     5    21 1
    14     8    10 1
    15     1    13 1
    16     1    14 1
    17     6    15 1
    18     3    17 1
    19     7    18 1
    20     9    20 1
    21    10    22 1
    22    11    23 1
    23    10    12 1
    24    12    24 1
@<TRIPOS>SUBSTRUCTURE
     1 GZL         1 TEMP              0 ****  ****    0 ROOT
