@<TRIPOS>MOLECULE
GZP
   33    35     1     0     0
SMALL
bcc


@<TRIPOS>ATOM
      1 C1          0.2680    0.2290   -0.1520 ca        1 GZP     -0.123000
      2 C2          1.6500    0.1500    0.0170 ca        1 GZP     -0.127000
      3 C6         -0.5730    0.1550    0.9590 ca        1 GZP     -0.127000
      4 C3          2.1940   -0.0030    1.2910 ca        1 GZP     -0.117000
      5 C5         -0.0360   -0.0000    2.2350 ca        1 GZP     -0.117000
      6 C8          1.3400    0.1580    4.9860 cc        1 GZP     -0.269300
      7 C4          1.3540   -0.0810    2.4110 ca        1 GZP     -0.020000
      8 C7          1.8880   -0.2330    3.7490 cd        1 GZP     -0.058300
      9 C9          2.3120   -0.2520    5.9760 cc        1 GZP      0.270600
     10 C14         3.9310   -0.3150    9.1720 c3        1 GZP     -0.074900
     11 C15         3.2200   -1.6520    9.0230 c3        1 GZP     -0.074900
     12 C13         3.4050    0.6100    8.0850 c3        1 GZP     -0.082900
     13 C16         1.9780   -1.4170    8.1800 c3        1 GZP     -0.082900
     14 C12         2.1680   -0.0680    7.4560 c3        1 GZP      0.133500
     15 N11         3.1210   -0.8360    4.0550 na        1 GZP     -0.010600
     16 N10         3.3720   -0.8580    5.3590 nd        1 GZP     -0.496800
     17 O17         0.9950    0.6950    7.7290 oh        1 GZP     -0.593800
     18 H1         -0.1580    0.3490   -1.1590 ha        1 GZP      0.135000
     19 H2          2.3150    0.2120   -0.8570 ha        1 GZP      0.135500
     20 H6         -1.6630    0.2170    0.8290 ha        1 GZP      0.135500
     21 H3          3.2870   -0.0460    1.4080 ha        1 GZP      0.135000
     22 H5         -0.7000   -0.0620    3.1110 ha        1 GZP      0.135000
     23 H11         3.7520   -1.2520    3.4110 hn        1 GZP      0.321700
     24 H141        5.0380   -0.4420    9.0830 hc        1 GZP      0.042950
     25 H142        3.7240    0.1220   10.1820 hc        1 GZP      0.042950
     26 H151        3.8930   -2.3910    8.5170 hc        1 GZP      0.042950
     27 H152        2.9480   -2.0740   10.0220 hc        1 GZP      0.042950
     28 H131        4.1930    0.8010    7.3160 hc        1 GZP      0.056950
     29 H132        3.1080    1.5980    8.5190 hc        1 GZP      0.056950
     30 H161        1.0640   -1.3540    8.8250 hc        1 GZP      0.056950
     31 H162        1.8230   -2.2430    7.4460 hc        1 GZP      0.056950
     32 H17         1.1010    1.5460    7.2880 ho        1 GZP      0.401000
     33 H8          0.3920    0.6490    5.1750 ha        1 GZP      0.171000
@<TRIPOS>BOND
     1    1    2 ar  
     2    1    3 ar  
     3    1   18 1   
     4    2    4 ar  
     5    2   19 1   
     6    3    5 ar  
     7    3   20 1   
     8    4    7 ar  
     9    4   21 1   
    10    5    7 ar  
    11    5   22 1   
    12    6    8 2   
    13    6    9 1   
    14    6   33 1   
    15    7    8 1   
    16    8   15 1   
    17    9   14 1   
    18    9   16 2   
    19   10   11 1   
    20   10   12 1   
    21   10   24 1   
    22   10   25 1   
    23   11   13 1   
    24   11   26 1   
    25   11   27 1   
    26   12   14 1   
    27   12   28 1   
    28   12   29 1   
    29   13   14 1   
    30   13   30 1   
    31   13   31 1   
    32   14   17 1   
    33   15   16 1   
    34   15   23 1   
    35   17   32 1   
@<TRIPOS>SUBSTRUCTURE
     1 GZP         1 TEMP              0 ****  ****    0 ROOT
