@<TRIPOS>MOLECULE
molecule
   33    35     1     0     0
SMALL
bcc


@<TRIPOS>ATOM
      1 C1           0.0000     0.0000     0.0000 ca         1 GZP      -0.121000
      2 C2           1.3840     0.0000     0.0000 ca         1 GZP      -0.123500
      3 C6          -0.6980    -0.0000     1.1950 ca         1 GZP      -0.123500
      4 C3           2.0760     0.0000     1.1930 ca         1 GZP      -0.113000
      5 C5          -0.0170    -0.0000     2.3950 ca         1 GZP      -0.113000
      6 C8           1.5650    -0.0010     4.9350 cc         1 GZP      -0.316300
      7 C4           1.3790    -0.0000     2.4010 ca         1 GZP      -0.024000
      8 C7           2.1160    -0.0010     3.6840 cd         1 GZP      -0.024300
      9 C9           2.6070    -0.0010     5.8610 cc         1 GZP       0.304600
     10 C14          3.5750    -0.4880     9.4480 c3         1 GZP      -0.080900
     11 C15          2.6240    -1.6710     9.1740 c3         1 GZP      -0.080900
     12 C13          3.8330     0.1240     8.0490 c3         1 GZP      -0.081900
     13 C16          1.9100    -1.3630     7.8460 c3         1 GZP      -0.081900
     14 C12          2.4510    -0.0030     7.3610 c3         1 GZP       0.132500
     15 N11          3.4700    -0.0010     3.8370 na         1 GZP      -0.042600
     16 N10          3.7440    -0.0020     5.2120 nd         1 GZP      -0.499800
     17 O17          1.5880     1.0590     7.7730 oh         1 GZP      -0.591800
     18 H1          -0.5390     0.0000    -0.9390 ha         1 GZP       0.133000
     19 H2           1.9240     0.0000    -0.9390 ha         1 GZP       0.134000
     20 H6          -1.7810    -0.0000     1.1880 ha         1 GZP       0.134000
     21 H3           3.1590     0.0000     1.1920 ha         1 GZP       0.131500
     22 H5          -0.5640    -0.0010     3.3290 ha         1 GZP       0.131500
     23 H11          4.1480    -0.0010     3.1010 hn         1 GZP       0.330700
     24 H141         3.0970     0.2370    10.0960 hc         1 GZP       0.045200
     25 H142         4.5020    -0.8420     9.8820 hc         1 GZP       0.045200
     26 H151         1.8980    -1.7550     9.9730 hc         1 GZP       0.045200
     27 H152         3.1920    -2.5890     9.0830 hc         1 GZP       0.045200
     28 H131         4.5800    -0.4480     7.5130 hc         1 GZP       0.059200
     29 H132         4.1230     1.1640     8.1340 hc         1 GZP       0.059200
     30 H161         2.1360    -2.1320     7.1180 hc         1 GZP       0.059200
     31 H162         0.8410    -1.2990     8.0080 hc         1 GZP       0.059200
     32 H17          1.8640     1.8640     7.3680 ho         1 GZP       0.408000
     33 H8           0.5080     0.0570     5.1650 ha         1 GZP       0.163000
@<TRIPOS>BOND
     1     1     2 ar
     2     1     3 ar
     3     2     4 ar
     4     3     5 ar
     5     4     7 ar
     6     5     7 ar
     7     6     8 2
     8     6     9 1
     9     7     8 1
    10     8    15 1
    11     9    14 1
    12     9    16 2
    13    10    11 1
    14    10    12 1
    15    11    13 1
    16    12    14 1
    17    13    14 1
    18    14    17 1
    19    15    16 1
    20     1    18 1
    21     2    19 1
    22     3    20 1
    23     4    21 1
    24     5    22 1
    25     6    33 1
    26    15    23 1
    27    10    24 1
    28    10    25 1
    29    11    26 1
    30    11    27 1
    31    12    28 1
    32    12    29 1
    33    13    30 1
    34    13    31 1
    35    17    32 1
@<TRIPOS>SUBSTRUCTURE
     1 GZP         1 TEMP              0 ****  ****    0 ROOT
