@<TRIPOS>MOLECULE
molecule
   24    24     1     0     0
SMALL
bcc


@<TRIPOS>ATOM
      1 C10          0.0000     0.0000     0.0000 ce         1 GZV      -0.352200
      2 C13         -2.1580     0.0060     1.1710 c          1 GZV       0.848800
      3 C01          3.4430    -2.8360    -3.6030 c3         1 GZV      -0.038800
      4 C02          3.1590    -1.4800    -3.0120 ca         1 GZV      -0.147300
      5 C03          3.5910    -0.3380    -3.6650 ca         1 GZV      -0.088000
      6 C04          3.3350     0.9120    -3.1310 ca         1 GZV      -0.192000
      7 C05          2.6450     1.0310    -1.9390 ca         1 GZV       0.176900
      8 C07          2.2040    -0.1180    -1.2720 ca         1 GZV      -0.195600
      9 C08          1.4670     0.0000     0.0000 c          1 GZV       0.580900
     10 C11         -0.6770     0.0000     1.1710 cf         1 GZV       0.146900
     11 C16          2.4630    -1.3790    -1.8230 ca         1 GZV       0.184900
     12 F17          2.0370    -2.4940    -1.1900 f          1 GZV      -0.120900
     13 O09          2.0750     0.0970     1.0490 o          1 GZV      -0.527100
     14 O12         -0.0010    -0.0040     2.3440 oh         1 GZV      -0.507100
     15 O14         -2.7650     0.0100     0.1190 o          1 GZV      -0.816300
     16 O15         -2.8310     0.0070     2.3380 o          1 GZV      -0.816300
     17 H1          -0.5410     0.0050    -0.9380 ha         1 GZV       0.161000
     18 H3           4.0040    -2.7190    -4.5230 hc         1 GZV       0.043033
     19 H4           4.0220    -3.4230    -2.9000 hc         1 GZV       0.043033
     20 H5           2.5080    -3.3420    -3.8130 hc         1 GZV       0.043033
     21 H6           4.1320    -0.4240    -4.5990 ha         1 GZV       0.130000
     22 H7           3.6770     1.8000    -3.6490 ha         1 GZV       0.139000
     23 H9          -0.2660     0.7370     2.8620 ho         1 GZV       0.433000
     24 F06          2.3970     2.2540    -1.4200 f          1 GZV      -0.127900
@<TRIPOS>BOND
     1    12    11 1
     2    13     9 2
     3     3     4 1
     4    11     4 ar
     5    11     8 ar
     6     4     5 ar
     7    14    10 1
     8     9     8 1
     9     9     1 1
    10     8     7 ar
    11     5     6 ar
    12    10     1 2
    13    10     2 1
    14     7     6 ar
    15     7    24 1
    16    15     2 1
    17     2    16 1
    18     1    17 1
    19     3    18 1
    20     3    19 1
    21     3    20 1
    22     5    21 1
    23     6    22 1
    24    14    23 1
@<TRIPOS>SUBSTRUCTURE
     1 GZV         1 TEMP              0 ****  ****    0 ROOT
