@<TRIPOS>MOLECULE
molecule
   68    67     1     0     0
SMALL
bcc


@<TRIPOS>ATOM
      1 NH1          0.0000     0.0000     0.0000 n2         1 GZZ      -0.796100
      2 NH2          1.9900    -0.0010    -1.1910 nz         1 GZZ      -0.775600
      3 CZ1          1.3030     0.0000     0.0000 c2         1 GZZ       0.678600
      4 NE1          1.9900     0.0000     1.1900 nu         1 GZZ      -0.883200
      5 C1           1.2590     0.0010     2.4600 c3         1 GZZ       0.235300
      6 C2           2.2520     0.0010     3.6220 c3         1 GZZ      -0.100400
      7 C3           1.4880     0.0010     4.9470 c3         1 GZZ      -0.076900
      8 C4           2.4820     0.0020     6.1110 c3         1 GZZ      -0.080400
      9 C5           1.7170     0.0030     7.4350 c3         1 GZZ      -0.079900
     10 C6           2.7110     0.0040     8.5980 c3         1 GZZ      -0.081400
     11 C7           1.9470     0.0040     9.9230 c3         1 GZZ      -0.082400
     12 C8           2.9410     0.0040    11.0860 c3         1 GZZ       0.145800
     13 N9           2.2070     0.0050    12.3580 n7         1 GZZ      -0.798200
     14 C10          3.2140     0.0050    13.4260 c3         1 GZZ       0.145800
     15 C11          2.5150     0.0060    14.7870 c3         1 GZZ      -0.082400
     16 C12          3.5630     0.0070    15.9000 c3         1 GZZ      -0.081400
     17 C13          2.8650     0.0070    17.2600 c3         1 GZZ      -0.079900
     18 C14          3.9130     0.0080    18.3740 c3         1 GZZ      -0.080400
     19 C15          3.2140     0.0080    19.7350 c3         1 GZZ      -0.076900
     20 C16          4.2620     0.0080    20.8490 c3         1 GZZ      -0.100400
     21 C17          3.5630     0.0100    22.2090 c3         1 GZZ       0.235300
     22 NE2          4.5670     0.0100    23.2740 nu         1 GZZ      -0.883200
     23 CZ2          4.1720     0.0110    24.5910 c2         1 GZZ       0.678600
     24 NH3          5.1160     0.0110    25.5920 nz         1 GZZ      -0.775600
     25 NH4          2.9040     0.0110    24.8910 n2         1 GZZ      -0.796100
     26 HHN1        -0.5020     0.0000     0.8660 hn         1 GZZ       0.458900
     27 HH21         2.5660     0.8150    -1.2450 hn         1 GZZ       0.473133
     28 HH22         1.3390    -0.0010    -1.9510 hn         1 GZZ       0.473133
     29 HN1E         2.9910    -0.0000     1.1900 hn         1 GZZ       0.450300
     30 HC11         0.6350    -0.8830     2.5180 h1         1 GZZ       0.068450
     31 HC12         0.6360     0.8850     2.5170 h1         1 GZZ       0.068450
     32 HC21         2.8750     0.8850     3.5650 hc         1 GZZ       0.054700
     33 HC22         2.8750    -0.8840     3.5650 hc         1 GZZ       0.054700
     34 HC31         0.8660    -0.8830     5.0050 hc         1 GZZ       0.052450
     35 HC32         0.8650     0.8850     5.0040 hc         1 GZZ       0.052450
     36 HC41         3.1050    -0.8820     6.0540 hc         1 GZZ       0.045700
     37 HC42         3.1050     0.8870     6.0530 hc         1 GZZ       0.045700
     38 HC51         1.0940     0.8870     7.4920 hc         1 GZZ       0.046700
     39 HC52         1.0950    -0.8820     7.4930 hc         1 GZZ       0.046700
     40 HC61         3.3340    -0.8800     8.5410 hc         1 GZZ       0.042950
     41 HC62         3.3330     0.8880     8.5400 hc         1 GZZ       0.042950
     42 HC71         1.3240    -0.8800     9.9810 hc         1 GZZ       0.050700
     43 HC72         1.3250     0.8890     9.9810 hc         1 GZZ       0.050700
     44 HC81         3.5630    -0.8800    11.0290 h1         1 GZZ       0.033700
     45 HC82         3.5640     0.8890    11.0280 h1         1 GZZ       0.033700
     46 HN9          1.6520    -0.8250    12.4240 hn         1 GZZ       0.350800
     47 H101         3.8330     0.8900    13.3380 h1         1 GZZ       0.033700
     48 H102         3.8330    -0.8790    13.3390 h1         1 GZZ       0.033700
     49 H111         1.8960     0.8910    14.8740 hc         1 GZZ       0.050700
     50 H112         1.8950    -0.8780    14.8750 hc         1 GZZ       0.050700
     51 H121         4.1830    -0.8770    15.8130 hc         1 GZZ       0.042950
     52 H122         4.1820     0.8920    15.8120 hc         1 GZZ       0.042950
     53 H131         2.2460    -0.8780    17.3480 hc         1 GZZ       0.046700
     54 H132         2.2450     0.8910    17.3480 hc         1 GZZ       0.046700
     55 H141         4.5320     0.8920    18.2870 hc         1 GZZ       0.045700
     56 H142         4.5330    -0.8760    18.2870 hc         1 GZZ       0.045700
     57 H151         2.5950    -0.8770    19.8220 hc         1 GZZ       0.052450
     58 H152         2.5940     0.8920    19.8220 hc         1 GZZ       0.052450
     59 H161         4.8810    -0.8760    20.7620 hc         1 GZZ       0.054700
     60 H162         4.8820     0.8930    20.7610 hc         1 GZZ       0.054700
     61 H171         2.9430    -0.8750    22.2970 h1         1 GZZ       0.068450
     62 H172         2.9440     0.8940    22.2960 h1         1 GZZ       0.068450
     63 HN2E         5.5410     0.0360    23.0440 hn         1 GZZ       0.450300
     64 HH31         4.7150    -0.3640    26.4290 hn         1 GZZ       0.473133
     65 HH32         5.8960    -0.5520    25.3150 hn         1 GZZ       0.473133
     66 HHN4         2.6160     0.0110    25.8490 hn         1 GZZ       0.458900
     67 HH23         2.5640    -0.8190    -1.2440 hn         1 GZZ       0.473133
     68 HH33         5.4280     0.9470    25.7560 hn         1 GZZ       0.473133
@<TRIPOS>BOND
     1     1     3 2
     2     1    26 1
     3     2     3 1
     4     2    27 1
     5     2    28 1
     6     3     4 1
     7     4     5 1
     8     4    29 1
     9     5     6 1
    10     5    30 1
    11     5    31 1
    12     6     7 1
    13     6    32 1
    14     6    33 1
    15     7     8 1
    16     7    34 1
    17     7    35 1
    18     8     9 1
    19     8    36 1
    20     8    37 1
    21     9    10 1
    22     9    38 1
    23     9    39 1
    24    10    11 1
    25    10    40 1
    26    10    41 1
    27    11    12 1
    28    11    42 1
    29    11    43 1
    30    12    13 1
    31    12    44 1
    32    12    45 1
    33    13    14 1
    34    13    46 1
    35    14    15 1
    36    14    47 1
    37    14    48 1
    38    15    16 1
    39    15    49 1
    40    15    50 1
    41    16    17 1
    42    16    51 1
    43    16    52 1
    44    17    18 1
    45    17    53 1
    46    17    54 1
    47    18    19 1
    48    18    55 1
    49    18    56 1
    50    19    20 1
    51    19    57 1
    52    19    58 1
    53    20    21 1
    54    20    59 1
    55    20    60 1
    56    21    22 1
    57    21    61 1
    58    21    62 1
    59    22    23 1
    60    22    63 1
    61    23    24 1
    62    23    25 2
    63    24    64 1
    64    24    65 1
    65    25    66 1
    66    67     2 1
    67    68    24 1
@<TRIPOS>SUBSTRUCTURE
     1 GZZ         1 TEMP              0 ****  ****    0 ROOT
