@<TRIPOS>MOLECULE
molecule
   51    53     1     0     0
SMALL
bcc


@<TRIPOS>ATOM
      1 C1           0.0000     0.0000     0.0000 ca         1 Z00      -0.316500
      2 S2          -0.8820    -0.0010    -1.5260 sy         1 Z00       1.417200
      3 O3          -2.1640     0.5430    -1.2490 o          1 Z00      -0.611300
      4 O4           0.0000     0.5440    -2.4980 o          1 Z00      -0.611300
      5 N5          -1.1250    -1.5820    -1.9510 nu         1 Z00      -0.824800
      6 C6           2.3890     1.4410     4.1420 c3         1 Z00       0.242800
      7 C7           2.1360    -0.0020     3.7000 c3         1 Z00      -0.064100
      8 C8           1.3820    -0.0020     2.3940 ca         1 Z00      -0.027300
      9 C9           2.0740     0.0000     1.1970 ca         1 Z00      -0.150500
     10 C10          1.3820     0.0000     0.0000 ca         1 Z00      -0.013500
     11 C11         -0.6910     0.0050     1.1970 ca         1 Z00      -0.013500
     12 C12         -0.0000     0.0040     2.3940 ca         1 Z00      -0.150500
     13 C13         -1.9270    -2.3960    -1.1650 cc         1 Z00       0.680300
     14 S14         -2.2970    -4.0960    -1.4640 ss         1 Z00      -0.338800
     15 C15         -3.2850    -4.1020    -0.0010 cc         1 Z00       0.426700
     16 N16         -3.2350    -2.9180     0.5160 nd         1 Z00      -0.296000
     17 N17         -2.5400    -2.0450    -0.0710 nd         1 Z00      -0.387000
     18 C18         -4.0490    -5.2790     0.5480 c3         1 Z00      -0.087000
     19 C19         -3.5430    -5.6060     1.9540 c3         1 Z00      -0.085100
     20 C20         -5.5380    -4.9350     0.6090 c3         1 Z00      -0.085100
     21 C21          3.4430     4.9530     5.9750 ca         1 Z00       0.521200
     22 C22          4.1320     5.0200     7.1690 ca         1 Z00      -0.371600
     23 C23          3.4680     2.6450     6.0130 ca         1 Z00       0.735200
     24 N24          3.1340     3.7880     5.4360 nb         1 Z00      -0.751000
     25 C25          4.1640     2.6380     7.2190 ca         1 Z00      -0.176900
     26 C26          4.5020     3.8440     7.8090 ca         1 Z00       0.005000
     27 N27          3.1220     1.4400     5.4110 nu         1 Z00      -0.905900
     28 F29          4.0020     7.3800     6.9470 f          1 Z00      -0.223633
     29 F30          3.8900     6.4640     9.0370 f          1 Z00      -0.223633
     30 F31          5.8690     6.4660     7.8950 f          1 Z00      -0.223633
     31 Cl           4.6010     1.1370     7.9750 cl         1 Z00      -0.098400
     32 H10          1.9240     0.0010    -0.9380 ha         1 Z00       0.162500
     33 H11         -1.7750     0.0090     1.1970 ha         1 Z00       0.162500
     34 H5          -0.7180    -1.9430    -2.7920 hn         1 Z00       0.476800
     35 H61C         1.4420     1.9500     4.2720 h1         1 Z00       0.061200
     36 H62C         2.9740     1.9530     3.3880 h1         1 Z00       0.061200
     37 H71C         3.0830    -0.5110     3.5700 hc         1 Z00       0.057700
     38 H72C         1.5510    -0.5130     4.4540 hc         1 Z00       0.057700
     39 H27          3.3960     0.5740     5.8300 hn         1 Z00       0.458800
     40 H9           3.1570    -0.0000     1.1970 ha         1 Z00       0.140000
     41 H12         -0.5420     0.0080     3.3320 ha         1 Z00       0.140000
     42 H18         -3.9030    -6.1370    -0.0970 hc         1 Z00       0.060700
     43 H191        -4.0370    -6.4980     2.3180 hc         1 Z00       0.045533
     44 H192        -3.7590    -4.7770     2.6180 hc         1 Z00       0.045533
     45 H193        -2.4730    -5.7730     1.9230 hc         1 Z00       0.045533
     46 H201        -5.8790    -4.6280    -0.3720 hc         1 Z00       0.045533
     47 H202        -6.0970    -5.8060     0.9290 hc         1 Z00       0.045533
     48 H203        -5.6940    -4.1270     1.3140 hc         1 Z00       0.045533
     49 H21          3.1520     5.8680     5.4730 h4         1 Z00       0.046100
     50 H26          5.0430     3.8700     8.7470 ha         1 Z00       0.163000
     51 C28          4.4800     6.3560     7.7730 c3         1 Z00       0.686200
@<TRIPOS>BOND
     1     1     2 1
     2     1    10 ar
     3     1    11 ar
     4     2     3 2
     5     2     4 2
     6     2     5 1
     7     5    13 1
     8     6     7 1
     9     6    27 1
    10     7     8 1
    11     8     9 ar
    12     8    12 ar
    13     9    10 ar
    14    11    12 ar
    15    13    14 1
    16    13    17 2
    17    14    15 1
    18    15    16 2
    19    15    18 1
    20    16    17 1
    21    18    19 1
    22    18    20 1
    23    21    22 ar
    24    21    24 ar
    25    22    26 ar
    26    22    51 1
    27    23    24 ar
    28    23    25 ar
    29    23    27 1
    30    25    26 ar
    31    25    31 1
    32    51    28 1
    33    51    29 1
    34    51    30 1
    35    10    32 1
    36    11    33 1
    37     5    34 1
    38     6    35 1
    39     6    36 1
    40     7    37 1
    41     7    38 1
    42    27    39 1
    43     9    40 1
    44    12    41 1
    45    18    42 1
    46    19    43 1
    47    19    44 1
    48    19    45 1
    49    20    46 1
    50    20    47 1
    51    20    48 1
    52    21    49 1
    53    26    50 1
@<TRIPOS>SUBSTRUCTURE
     1 Z00         1 TEMP              0 ****  ****    0 ROOT
