@<TRIPOS>MOLECULE
molecule
   33    34     1     0     0
SMALL
bcc


@<TRIPOS>ATOM
      1 N01          0.0000     0.0000     0.0000 no         1 Z02       0.295200
      2 N02          4.9420     0.1180    -1.4280 nz         1 Z02      -0.675400
      3 N03          4.9270    -0.0000     2.7580 nu         1 Z02      -0.745600
      4 N04          6.9650    -1.0620     4.9200 nb         1 Z02      -0.678000
      5 C05          2.4740     0.0000     0.0000 ca         1 Z02      -0.012000
      6 C06          3.6980     0.0000     0.6730 ca         1 Z02      -0.315600
      7 C07          3.7170     0.0010     2.0760 ca         1 Z02       0.307600
      8 C08          2.5190     0.0000     2.7800 ca         1 Z02      -0.203000
      9 C09          1.3180     0.0000     2.1000 ca         1 Z02       0.025000
     10 C10          1.2960    -0.0000     0.7160 ca         1 Z02      -0.195200
     11 C11          4.9620    -0.0010    -0.0870 c          1 Z02       0.524700
     12 C12          4.9460     0.1230     4.2180 c3         1 Z02       0.173500
     13 C13          6.3710     0.0960     4.7060 ca         1 Z02       0.370600
     14 C14          8.2100    -1.1340     5.3470 ca         1 Z02       0.427200
     15 C15          8.9430     0.0130     5.5880 ca         1 Z02      -0.225300
     16 C16          8.3520     1.2500     5.3750 ca         1 Z02      -0.087000
     17 C17          7.0410     1.2850     4.9250 ca         1 Z02      -0.230300
     18 O18          6.0220    -0.1090     0.4990 o          1 Z02      -0.471100
     19 O19         -0.0230    -0.0000    -1.2180 o          1 Z02      -0.181500
     20 O20         -1.0430    -0.0050     0.6290 o          1 Z02      -0.181500
     21 HN02         5.8800     0.1290    -1.7760 hn         1 Z02       0.480467
     22 HN0A         4.4820     0.9710    -1.6810 hn         1 Z02       0.480467
     23 HN03         5.7870    -0.0520     2.2490 hn         1 Z02       0.483800
     24 H05          2.4500     0.0550    -1.0820 ha         1 Z02       0.141000
     25 H08          2.5280    -0.0100     3.8630 ha         1 Z02       0.180000
     26 H09          0.3870     0.0000     2.6530 ha         1 Z02       0.193000
     27 H12          4.4820     1.0580     4.5070 h1         1 Z02       0.074200
     28 H12A         4.3980    -0.7030     4.6570 h1         1 Z02       0.074200
     29 H14          8.6640    -2.1040     5.5110 h4         1 Z02       0.039100
     30 H15          9.9650    -0.0530     5.9390 ha         1 Z02       0.156000
     31 H16          8.9010     2.1660     5.5550 ha         1 Z02       0.154000
     32 H17          6.5480     2.2330     4.7480 ha         1 Z02       0.141000
     33 H023         4.4810    -0.6760    -1.8270 hn         1 Z02       0.480467
@<TRIPOS>BOND
     1     1    10 1
     2     1    19 1
     3     1    20 1
     4     2    11 1
     5     2    21 1
     6     2    22 1
     7     3     7 1
     8     3    12 1
     9     3    23 1
    10     4    13 ar
    11     4    14 ar
    12     5     6 ar
    13     5    10 ar
    14     5    24 1
    15     6     7 ar
    16     6    11 1
    17     7     8 ar
    18     8     9 ar
    19     8    25 1
    20     9    10 ar
    21     9    26 1
    22    11    18 2
    23    12    13 1
    24    12    27 1
    25    12    28 1
    26    13    17 ar
    27    14    15 ar
    28    14    29 1
    29    15    16 ar
    30    15    30 1
    31    16    17 ar
    32    16    31 1
    33    17    32 1
    34    33     2 1
@<TRIPOS>SUBSTRUCTURE
     1 Z02         1 TEMP              0 ****  ****    0 ROOT
