@<TRIPOS>MOLECULE
molecule
   47    49     1     0     0
SMALL
bcc


@<TRIPOS>ATOM
      1 N01          0.0000     0.0000     0.0000 nu         1 Z04      -0.757600
      2 N02          3.1230     0.1160     2.7900 nz         1 Z04      -0.675400
      3 N03         -4.1450     1.2100     0.8950 nb         1 Z04      -0.790000
      4 N04         -4.2190    -1.0920     0.6790 nb         1 Z04      -0.790000
      5 N05          3.1680     0.0030    -3.6210 nh         1 Z04      -0.614000
      6 C08          3.6960     0.0000     0.0000 ca         1 Z04      -0.013000
      7 C09          2.3780     0.0000     0.4660 ca         1 Z04      -0.326600
      8 C11          1.3140     0.0010    -0.4520 ca         1 Z04       0.314600
      9 C12          1.5820     0.0010    -1.8120 ca         1 Z04      -0.258000
     10 C13          2.8980     0.0030    -2.2570 ca         1 Z04       0.254600
     11 C14          3.9490     0.0010    -1.3410 ca         1 Z04      -0.178200
     12 C16         -1.1040     0.1250    -0.9540 c3         1 Z04       0.285100
     13 C17         -2.4150     0.0970    -0.2130 ca         1 Z04      -0.477900
     14 C18         -2.9930     1.2690     0.2470 ca         1 Z04       0.531200
     15 C19         -4.7440     0.0470     1.1050 ca         1 Z04       0.963900
     16 C20         -3.0690    -1.1020     0.0250 ca         1 Z04       0.531200
     17 C21          2.5960     1.1910    -4.2710 c3         1 Z04       0.130300
     18 C22          2.9670     1.1820    -5.7560 c3         1 Z04       0.142400
     19 C23          2.6720    -1.2270    -4.2570 c3         1 Z04       0.130300
     20 C24          3.0410    -1.2120    -5.7420 c3         1 Z04       0.142400
     21 O25          0.9640    -0.1100     2.3160 o          1 Z04      -0.477100
     22 O26          2.5050    -0.0340    -6.3490 os         1 Z04      -0.413600
     23 O27          6.2690     0.0020    -1.0300 o          1 Z04      -0.174000
     24 O28          5.5770     0.0040    -3.0230 o          1 Z04      -0.174000
     25 HN01        -0.1930    -0.1070     0.9760 hn         1 Z04       0.481800
     26 HN02         3.7350    -0.6700     2.6990 hn         1 Z04       0.480800
     27 HN0A         3.6220     0.9550     2.5680 hn         1 Z04       0.480800
     28 HN06        -6.4120    -0.8510     1.9530 hn         1 Z04       0.462300
     29 HN0B        -6.3570     0.8740     2.1140 hn         1 Z04       0.462300
     30 H08          4.5190    -0.0010     0.7050 ha         1 Z04       0.142000
     31 H12          0.7700    -0.0690    -2.5250 ha         1 Z04       0.181000
     32 H16         -1.0680    -0.6990    -1.6570 h1         1 Z04       0.061700
     33 H16A        -1.0120     1.0610    -1.4910 h1         1 Z04       0.061700
     34 H18         -2.5080     2.2230     0.0780 h4         1 Z04       0.031600
     35 H20         -2.6440    -2.0370    -0.3210 h4         1 Z04       0.031600
     36 H21          1.5180     1.1750    -4.1680 h1         1 Z04       0.048950
     37 H21A         2.9960     2.0840    -3.8050 h1         1 Z04       0.048950
     38 H22          4.0440     1.2470    -5.8600 h1         1 Z04       0.071700
     39 H22A         2.4990     2.0250    -6.2500 h1         1 Z04       0.071700
     40 H23          3.1270    -2.0880    -3.7810 h1         1 Z04       0.048950
     41 H23A         1.5950    -1.2780    -4.1540 h1         1 Z04       0.048950
     42 H24          2.6260    -2.0880    -6.2250 h1         1 Z04       0.071700
     43 H24A         4.1200    -1.2120    -5.8450 h1         1 Z04       0.071700
     44 H023         2.7510     0.1430     3.7190 hn         1 Z04       0.480800
     45 C15          2.1060    -0.0020     1.9120 c          1 Z04       0.522700
     46 N06         -5.9490     0.0210     1.7870 nv         1 Z04      -0.966500
     47 N07          5.3470     0.0020    -1.8270 no         1 Z04       0.297200
@<TRIPOS>BOND
     1     1     8 1
     2     1    12 1
     3     1    25 1
     4     2    45 1
     5     2    26 1
     6     2    27 1
     7     3    14 ar
     8     3    15 ar
     9     4    15 ar
    10     4    16 ar
    11     5    10 1
    12     5    17 1
    13     5    19 1
    14    46    15 1
    15    46    28 1
    16    46    29 1
    17    47    11 1
    18    47    23 1
    19    47    24 1
    20     6     7 ar
    21     6    11 ar
    22     6    30 1
    23     7     8 ar
    24     7    45 1
    25     8     9 ar
    26     9    10 ar
    27     9    31 1
    28    10    11 ar
    29    45    21 2
    30    12    13 1
    31    12    32 1
    32    12    33 1
    33    13    14 ar
    34    13    16 ar
    35    14    34 1
    36    16    35 1
    37    17    18 1
    38    17    36 1
    39    17    37 1
    40    18    22 1
    41    18    38 1
    42    18    39 1
    43    19    20 1
    44    19    40 1
    45    19    41 1
    46    20    22 1
    47    20    42 1
    48    20    43 1
    49    44     2 1
@<TRIPOS>SUBSTRUCTURE
     1 Z04         1 TEMP              0 ****  ****    0 ROOT
