@<TRIPOS>MOLECULE
Z0A
   33    33     1     0     0
SMALL
bcc


@<TRIPOS>ATOM
      1 N1           0.0000     0.0000     0.0000 nz         1 Z0A      -0.047600
      2 C1           1.4690     0.0000     0.0000 c3         1 Z0A      -0.057500
      3 C2           1.9790     0.0000     1.4420 c3         1 Z0A      -0.016400
      4 C3           1.5730     1.3080     2.1270 c3         1 Z0A      -0.165700
      5 C4           1.9790    -1.2490    -0.7210 c3         1 Z0A      -0.035400
      6 C5           0.0700     1.3820     2.2790 c          1 Z0A       0.600500
      7 O1          -0.7050     1.6570     1.3890 o          1 Z0A      -0.754500
      8 N2          -0.2800     1.0980     3.5450 ns         1 Z0A      -0.114900
      9 C6           0.8960     0.7980     4.3700 c3         1 Z0A       0.020000
     10 C7           2.1040     1.3450     3.5790 c3         1 Z0A      -0.015400
     11 C8           1.5740    -1.1880    -2.1960 c3         1 Z0A      -0.140400
     12 C9           2.0760    -2.4180    -2.9060 c          1 Z0A       0.601100
     13 C10          1.8070    -2.6020    -4.3770 c3         1 Z0A      -0.080100
     14 O2           2.6940    -3.2580    -2.2960 o          1 Z0A      -0.532100
     15 H1          -0.3340    -0.6330    -0.7000 hn         1 Z0A       0.258467
     16 H2           1.8300     0.8850    -0.5110 hx         1 Z0A       0.091700
     17 H3           3.0580    -0.0880     1.4440 hc         1 Z0A       0.053200
     18 H4           1.5470    -0.8370     1.9780 hc         1 Z0A       0.053200
     19 H5           1.9380     2.1620     1.5700 hc         1 Z0A       0.075700
     20 H6           1.5470    -2.1310    -0.2650 hc         1 Z0A       0.060700
     21 H7           3.0580    -1.2950    -0.6450 hc         1 Z0A       0.060700
     22 H8          -1.2220     1.0910     3.8830 hn         1 Z0A       0.211500
     23 H9           0.8190     1.3000     5.3270 h1         1 Z0A       0.040700
     24 H10          0.9940    -0.2720     4.5070 h1         1 Z0A       0.040700
     25 H11          2.3330     2.3610     3.8790 hc         1 Z0A       0.050200
     26 H12          2.9640     0.6960     3.6920 hc         1 Z0A       0.050200
     27 H13          0.4950    -1.1420    -2.2720 hc         1 Z0A       0.033200
     28 H14          2.0060    -0.3060    -2.6520 hc         1 Z0A       0.033200
     29 H15          2.1530    -1.7300    -4.9190 hc         1 Z0A       0.035367
     30 H16          0.7430    -2.7270    -4.5370 hc         1 Z0A       0.035367
     31 H17          2.3320    -3.4800    -4.7330 hc         1 Z0A       0.035367
     32 H18         -0.3340     0.9230    -0.1980 hn         1 Z0A       0.258467
     33 H131        -0.3340    -0.2900     0.8980 hn         1 Z0A       0.258467
@<TRIPOS>BOND
     1     1     2 1   
     2     1    15 1   
     3     1    32 1   
     4     1    33 1   
     5     2     3 1   
     6     2     5 1   
     7     2    16 1   
     8     3     4 1   
     9     3    17 1   
    10     3    18 1   
    11     4     6 1   
    12     4    10 1   
    13     4    19 1   
    14     5    11 1   
    15     5    20 1   
    16     5    21 1   
    17     6     7 2   
    18     6     8 1   
    19     8     9 1   
    20     8    22 1   
    21     9    10 1   
    22     9    23 1   
    23     9    24 1   
    24    10    25 1   
    25    10    26 1   
    26    11    12 1   
    27    11    27 1   
    28    11    28 1   
    29    12    13 1   
    30    12    14 2   
    31    13    29 1   
    32    13    30 1   
    33    13    31 1   
@<TRIPOS>SUBSTRUCTURE
     1 Z0A         1 TEMP              0 ****  ****    0 ROOT
