@<TRIPOS>MOLECULE
Z0B
   19    21     1     0     0
SMALL
bcc


@<TRIPOS>ATOM
      1 CAO        -0.0280   -0.0030    0.0010 ca        1 Z0B     -0.096300
      2 CAN         1.3910   -0.0020   -0.0130 ca        1 Z0B     -0.133300
      3 CAH         2.0780    0.0020    1.2200 ca        1 Z0B     -0.211300
      4 CAD         1.3350    0.0050    2.3960 ca        1 Z0B      0.380200
      5 CAL        -0.6790    0.0000    1.2720 ca        1 Z0B      0.414200
      6 CAC        -2.3220   -0.0140   -2.9030 cc        1 Z0B     -0.187400
      7 CAG        -2.1000   -0.0090   -1.5470 cd        1 Z0B     -0.119200
      8 CAM        -0.7010   -0.0070   -1.2510 ca        1 Z0B     -0.165100
      9 CAJ         0.0810   -0.0110   -2.4420 ca        1 Z0B      0.352600
     10 NAC         1.4550   -0.0090   -2.4570 nb        1 Z0B     -0.611000
     11 SAK        -0.9150   -0.0150   -3.8060 ss        1 Z0B      0.045100
     12 CAK         2.0660   -0.0050   -1.2910 ca        1 Z0B      0.421200
     13 N          -0.0290    0.0040    2.4300 nb        1 Z0B     -0.651000
     14 HAL        -1.7840   -0.0010    1.3220 h4        1 Z0B      0.027100
     15 HAH         3.1750    0.0030    1.2420 ha        1 Z0B      0.147000
     16 HAK         3.1710   -0.0050   -1.3110 h4        1 Z0B      0.028100
     17 HAD         1.8260    0.0080    3.3860 h4        1 Z0B      0.026100
     18 HAC        -3.3050   -0.0160   -3.3750 h4        1 Z0B      0.176000
     19 HAG        -2.8740   -0.0080   -0.7770 ha        1 Z0B      0.159000
@<TRIPOS>BOND
     1    1    2 ar  
     2    1    5 ar  
     3    1    8 ar  
     4    2    3 ar  
     5    2   12 ar  
     6    3    4 ar  
     7    3   15 1   
     8    4   13 ar  
     9    4   17 1   
    10    5   13 ar  
    11    5   14 1   
    12    6    7 2   
    13    6   11 1   
    14    6   18 1   
    15    7    8 1   
    16    7   19 1   
    17    8    9 ar  
    18    9   10 ar  
    19    9   11 1   
    20   10   12 ar  
    21   12   16 1   
@<TRIPOS>SUBSTRUCTURE
     1 Z0B         1 TEMP              0 ****  ****    0 ROOT
