@<TRIPOS>MOLECULE
molecule
   19    21     1     0     0
SMALL
bcc


@<TRIPOS>ATOM
      1 CAO          0.0000     0.0000     0.0000 ca         1 Z0B      -0.112300
      2 CAN          1.4150     0.0000     0.0000 ca         1 Z0B      -0.143300
      3 CAH          2.0760     0.0000     1.2380 ca         1 Z0B      -0.221300
      4 CAD          1.3240     0.0020     2.3770 ca         1 Z0B       0.409200
      5 CAL         -0.6820     0.0010     1.2170 ca         1 Z0B       0.439200
      6 CAC         -2.3880    -0.0150    -2.8670 cc         1 Z0B      -0.093400
      7 CAG         -2.0680    -0.0080    -1.5840 cd         1 Z0B      -0.128200
      8 CAM         -0.6950    -0.0070    -1.2970 ca         1 Z0B      -0.175100
      9 CAJ          0.0980    -0.0140    -2.4460 ca         1 Z0B       0.462600
     10 NAC          1.4340    -0.0140    -2.3570 nb         1 Z0B      -0.655000
     11 SAK         -0.9440    -0.0220    -3.8660 ss         1 Z0B      -0.118900
     12 CAK          2.0940    -0.0010    -1.2300 ca         1 Z0B       0.455200
     13 N            0.0000     0.0020     2.3430 nb         1 Z0B      -0.680000
     14 HAL         -1.7650     0.0010     1.2360 h4         1 Z0B       0.032100
     15 HAH          3.1580     0.0000     1.2890 ha         1 Z0B       0.144000
     16 HAK          3.1770     0.0090    -1.2440 h4         1 Z0B       0.033100
     17 HAD          1.8250     0.0020     3.3380 h4         1 Z0B       0.025100
     18 HAC         -3.4020    -0.0170    -3.2490 h4         1 Z0B       0.177000
     19 HAG         -2.8190    -0.0030    -0.8040 ha         1 Z0B       0.149000
@<TRIPOS>BOND
     1     1     2 ar
     2     1     5 ar
     3     1     8 ar
     4     2     3 ar
     5     2    12 ar
     6     3     4 ar
     7     4    13 ar
     8     5    13 ar
     9     6     7 2
    10     6    11 1
    11     7     8 1
    12     8     9 ar
    13     9    10 ar
    14     9    11 1
    15    10    12 ar
    16     5    14 1
    17     3    15 1
    18    12    16 1
    19     4    17 1
    20     6    18 1
    21     7    19 1
@<TRIPOS>SUBSTRUCTURE
     1 Z0B         1 TEMP              0 ****  ****    0 ROOT
