@<TRIPOS>MOLECULE
molecule
   52    54     1     0     0
SMALL
bcc


@<TRIPOS>ATOM
      1 CAZ          0.0000     0.0000     0.0000 c3         1 Z0M       0.062700
      2 CAN          1.5300     0.0000     0.0000 c3         1 Z0M      -0.140400
      3 CAL          2.0310     0.0000     1.4210 c          1 Z0M       0.672100
      4 OAM          1.2430     0.0000     2.3430 o          1 Z0M      -0.588100
      5 NAK          3.3570    -0.0000     1.6680 ns         1 Z0M      -0.571900
      6 CAB          5.2510     0.6100     3.1010 c3         1 Z0M       0.115100
      7 OAG          5.1690     2.0190     2.8760 oh         1 Z0M      -0.592800
      8 CAA          5.8640     0.3480     4.4800 c3         1 Z0M       0.126100
      9 OAH          7.0740     1.0970     4.6140 oh         1 Z0M      -0.598800
     10 CAF          6.1700    -1.1460     4.6280 c3         1 Z0M       0.047000
     11 CAI          6.5490    -1.4510     6.0790 c3         1 Z0M       0.130400
     12 OAJ          6.9450    -2.8190     6.1910 oh         1 Z0M      -0.609800
     13 NAE          4.9740    -1.9110     4.2630 na         1 Z0M      -0.183900
     14 CAQ          4.6980    -3.2150     4.5480 cc         1 Z0M      -0.234600
     15 CAD          3.9270    -1.4190     3.5600 cc         1 Z0M       0.358800
     16 NAO          3.0430    -2.3630     3.4160 nd         1 Z0M      -0.657000
     17 CAP          3.4880    -3.4800     4.0130 cd         1 Z0M       0.299600
     18 CAR          2.7650    -4.8010     4.0740 c3         1 Z0M      -0.081700
     19 CAS          1.3720    -4.5920     4.6720 c3         1 Z0M      -0.034100
     20 CAT          0.6480    -5.9120     4.7340 ca         1 Z0M      -0.081300
     21 CAU          0.7590    -6.7100     5.8570 ca         1 Z0M      -0.126000
     22 CAV          0.0940    -7.9200     5.9130 ca         1 Z0M      -0.128000
     23 CAW         -0.6810    -8.3330     4.8450 ca         1 Z0M      -0.135000
     24 CAC          3.8440    -0.0000     3.0490 c3         1 Z0M       0.111400
     25 CAX         -0.7920    -7.5350     3.7220 ca         1 Z0M      -0.128000
     26 CAY         -0.1310    -6.3220     3.6680 ca         1 Z0M      -0.126000
     27 SAZ         -0.6040    -0.0000    -1.7110 sh         1 Z0M      -0.450900
     28 HAZ1        -0.3610     0.8850     0.5100 h1         1 Z0M       0.074700
     29 HAZ2        -0.3610    -0.8840     0.5110 h1         1 Z0M       0.074700
     30 HAN1         1.8910    -0.8850    -0.5110 hc         1 Z0M       0.073700
     31 HAN2         1.8910     0.8850    -0.5110 hc         1 Z0M       0.073700
     32 HAZ         -1.9320    -0.0010    -1.7120 hs         1 Z0M       0.227800
     33 HAK          4.0080    -0.0270     0.9080 hn         1 Z0M       0.313500
     34 HAC          3.1750     0.5740     3.6780 h1         1 Z0M       0.113700
     35 HAB          5.8710     0.1530     2.3390 h1         1 Z0M       0.051700
     36 HAG          5.7690     2.2630     2.1910 ho         1 Z0M       0.414000
     37 HAA          5.1620     0.6480     5.2480 h1         1 Z0M       0.061700
     38 HAH          6.9260     1.8330     5.1850 ho         1 Z0M       0.420000
     39 HAF          6.9870    -1.4160     3.9700 h1         1 Z0M       0.089700
     40 HAI1         5.6960    -1.2690     6.7210 h1         1 Z0M       0.042700
     41 HAI2         7.3700    -0.8120     6.3800 h1         1 Z0M       0.042700
     42 HAJ          7.4950    -2.9260     6.9490 ho         1 Z0M       0.411000
     43 HAQ          5.3270    -3.9040     5.0990 h4         1 Z0M       0.196000
     44 HAR1         3.3240    -5.4910     4.6940 hc         1 Z0M       0.051200
     45 HAR2         2.6710    -5.2070     3.0740 hc         1 Z0M       0.051200
     46 HAS1         1.4660    -4.1850     5.6720 hc         1 Z0M       0.060700
     47 HAS2         0.8130    -3.9020     4.0530 hc         1 Z0M       0.060700
     48 HAU          1.3660    -6.3860     6.6940 ha         1 Z0M       0.131000
     49 HAY         -0.2180    -5.6960     2.7880 ha         1 Z0M       0.131000
     50 HAV          0.1810    -8.5460     6.7930 ha         1 Z0M       0.126500
     51 HAW         -1.2000    -9.2830     4.8880 ha         1 Z0M       0.126000
     52 HAX         -1.4010    -7.8570     2.8860 ha         1 Z0M       0.126500
@<TRIPOS>BOND
     1     1     2 1
     2     1    27 1
     3     2     3 1
     4     3     4 2
     5     3     5 1
     6     5    24 1
     7     6     7 1
     8     6     8 1
     9     6    24 1
    10     8     9 1
    11     8    10 1
    12    10    11 1
    13    10    13 1
    14    11    12 1
    15    13    14 1
    16    13    15 1
    17    14    17 2
    18    15    16 2
    19    15    24 1
    20    16    17 1
    21    17    18 1
    22    18    19 1
    23    19    20 1
    24    20    21 ar
    25    20    26 ar
    26    21    22 ar
    27    22    23 ar
    28    23    25 ar
    29    25    26 ar
    30     1    28 1
    31     1    29 1
    32     2    30 1
    33     2    31 1
    34    27    32 1
    35     5    33 1
    36    24    34 1
    37     6    35 1
    38     7    36 1
    39     8    37 1
    40     9    38 1
    41    10    39 1
    42    11    40 1
    43    11    41 1
    44    12    42 1
    45    14    43 1
    46    18    44 1
    47    18    45 1
    48    19    46 1
    49    19    47 1
    50    21    48 1
    51    26    49 1
    52    22    50 1
    53    23    51 1
    54    25    52 1
@<TRIPOS>SUBSTRUCTURE
     1 Z0M         1 TEMP              0 ****  ****    0 ROOT
