@<TRIPOS>MOLECULE
molecule
   34    35     1     0     0
SMALL
bcc


@<TRIPOS>ATOM
      1 O            0.0000     0.0000     0.0000 o          1 Z0O      -0.649100
      2 C            1.2160     0.0000     0.0000 c          1 Z0O       0.786100
      3 N3           1.8900     0.0000     1.1670 ns         1 Z0O      -0.592900
      4 C9           1.1560    -0.0010     2.4360 c3         1 Z0O       0.139400
      5 C12          0.2770    -1.2500     2.5160 c3         1 Z0O      -0.101433
      6 C11          2.1500    -0.0010     3.5990 c3         1 Z0O      -0.101433
      7 C10          0.2770     1.2480     2.5170 c3         1 Z0O      -0.101433
      8 N            1.8900    -0.0050    -1.1660 ns         1 Z0O      -0.494100
      9 C1           1.1950    -0.1070    -2.3750 ca         1 Z0O       0.094600
     10 C8          -0.0570     0.5050    -2.5070 ca         1 Z0O      -0.116000
     11 C7          -0.7550     0.4230    -3.6710 ca         1 Z0O      -0.147300
     12 C6          -0.2200    -0.2850    -4.7620 ca         1 Z0O       0.286300
     13 C3           1.0490    -0.9070    -4.6370 ca         1 Z0O       0.317300
     14 C2           1.7520    -0.8020    -3.4250 ca         1 Z0O      -0.213300
     15 N2          -0.8880    -0.3800    -5.9160 nb         1 Z0O      -0.636000
     16 C5          -0.3650    -1.0460    -6.9200 ca         1 Z0O       0.291900
     17 C4           0.8820    -1.6600    -6.7960 ca         1 Z0O       0.303900
     18 N1           1.5610    -1.5810    -5.6730 nb         1 Z0O      -0.647000
     19 H3           2.8900    -0.0120     1.1680 hn         1 Z0O       0.307500
     20 H            2.8870     0.0880    -1.1690 hn         1 Z0O       0.320500
     21 H121        -0.6490    -1.0750     1.9800 hc         1 Z0O       0.046367
     22 H122         0.7990    -2.0880     2.0710 hc         1 Z0O       0.046367
     23 H123         0.0570    -1.4700     3.5540 hc         1 Z0O       0.046367
     24 H111         2.7740    -0.8850     3.5410 hc         1 Z0O       0.046367
     25 H112         1.6080    -0.0040     4.5370 hc         1 Z0O       0.046367
     26 H113         2.7720     0.8840     3.5440 hc         1 Z0O       0.046367
     27 H101         0.0390     1.4560     3.5530 hc         1 Z0O       0.046367
     28 H102        -0.6390     1.0820     1.9630 hc         1 Z0O       0.046367
     29 H103         0.8070     2.0920     2.0920 hc         1 Z0O       0.046367
     30 H8          -0.4740     1.0560    -1.6720 ha         1 Z0O       0.176000
     31 H2           2.7750    -1.1550    -3.3600 ha         1 Z0O       0.148000
     32 H7          -1.7230     0.9010    -3.7570 ha         1 Z0O       0.155000
     33 H5          -0.9090    -1.1220    -7.8540 h4         1 Z0O       0.029100
     34 H4           1.2970    -2.2050    -7.6360 h4         1 Z0O       0.029100
@<TRIPOS>BOND
     1     1     2 2
     2     2     3 1
     3     2     8 1
     4     3     4 1
     5     4     5 1
     6     4     6 1
     7     4     7 1
     8     8     9 1
     9     9    10 ar
    10     9    14 ar
    11    10    11 ar
    12    11    12 ar
    13    12    13 ar
    14    12    15 ar
    15    13    14 ar
    16    13    18 ar
    17    15    16 ar
    18    16    17 ar
    19    17    18 ar
    20     3    19 1
    21     8    20 1
    22     5    21 1
    23     5    22 1
    24     5    23 1
    25     6    24 1
    26     6    25 1
    27     6    26 1
    28     7    27 1
    29     7    28 1
    30     7    29 1
    31    10    30 1
    32    14    31 1
    33    11    32 1
    34    16    33 1
    35    17    34 1
@<TRIPOS>SUBSTRUCTURE
     1 Z0O         1 TEMP              0 ****  ****    0 ROOT
