@<TRIPOS>MOLECULE
molecule
  112   111     1     0     0
SMALL
bcc


@<TRIPOS>ATOM
      1 O1           0.0000     0.0000     0.0000 oh         1 Z0P      -0.582800
      2 C1           1.4290     0.0000     0.0000 c3         1 Z0P       0.123400
      3 O2          -0.1170     1.1290     2.0960 os         1 Z0P      -0.387900
      4 C2           1.9390     0.0000     1.4420 c3         1 Z0P       0.151100
      5 O3           1.5560    -1.2400     2.0930 os         1 Z0P      -0.405900
      6 C3           1.3300     1.1830     2.1980 c3         1 Z0P       0.155400
      7 O4           3.4560    -2.1330     1.4030 o          1 Z0P      -0.560000
      8 C4          -0.8080     2.1010     2.7100 c          1 Z0P       0.628100
      9 O5          -0.2230     2.9710     3.3130 o          1 Z0P      -0.565000
     10 C5          -2.3140     2.1110     2.6480 c3         1 Z0P      -0.123400
     11 C6          -2.8490     3.3160     3.4230 c3         1 Z0P      -0.073400
     12 C7          -4.3780     3.3260     3.3600 c3         1 Z0P      -0.083400
     13 C8          -4.9130     4.5320     4.1350 c3         1 Z0P      -0.080400
     14 C9          -6.4410     4.5410     4.0710 c3         1 Z0P      -0.082400
     15 C10         -6.9760     5.7470     4.8470 c3         1 Z0P      -0.081400
     16 C11         -8.5050     5.7570     4.7830 c3         1 Z0P      -0.082400
     17 C12         -9.0400     6.9620     5.5590 c3         1 Z0P      -0.082400
     18 C13        -10.5690     6.9710     5.4950 c3         1 Z0P      -0.081400
     19 C14        -11.1040     8.1770     6.2700 c3         1 Z0P      -0.082400
     20 C15        -12.6330     8.1860     6.2080 c3         1 Z0P      -0.082400
     21 C16        -13.1680     9.3920     6.9820 c3         1 Z0P      -0.082400
     22 C17        -14.6970     9.4010     6.9200 c3         1 Z0P      -0.081400
     23 C18        -15.2310    10.6070     7.6940 c3         1 Z0P      -0.084400
     24 C19        -16.7610    10.6170     7.6310 c3         1 Z0P      -0.092100
     25 C20          2.4160    -2.2660     2.0040 c          1 Z0P       0.628100
     26 C21          2.0850    -3.5850     2.6540 c3         1 Z0P      -0.125400
     27 C22          3.2230    -4.5760     2.4050 c3         1 Z0P      -0.073400
     28 C23          2.8870    -5.9150     3.0650 c3         1 Z0P      -0.083400
     29 C24          4.0250    -6.9060     2.8160 c3         1 Z0P      -0.079400
     30 C25          3.6890    -8.2450     3.4760 c3         1 Z0P      -0.082400
     31 C26          4.8280    -9.2360     3.2260 c3         1 Z0P      -0.080400
     32 C27          4.4920   -10.5750     3.8870 c3         1 Z0P      -0.087400
     33 C28          5.6310   -11.5660     3.6380 c3         1 Z0P      -0.034400
     34 C29          5.2950   -12.9060     4.2980 c3         1 Z0P      -0.150200
     35 C30          6.4160   -13.8810     4.0530 c2         1 Z0P      -0.337200
     36 C31          6.9620   -14.5180     5.0590 c2         1 Z0P      -0.346200
     37 C32          6.3620   -14.4060     6.4370 c3         1 Z0P      -0.144200
     38 C33          6.0940   -15.8060     6.9920 c3         1 Z0P      -0.034400
     39 C34          5.4840   -15.6920     8.3910 c3         1 Z0P      -0.087400
     40 C35          5.2170   -17.0920     8.9460 c3         1 Z0P      -0.080400
     41 C36          4.6070   -16.9770    10.3450 c3         1 Z0P      -0.084400
     42 C37          4.3400   -18.3780    10.9000 c3         1 Z0P      -0.092100
     43 H11          1.7900     0.8840    -0.5110 h1         1 Z0P       0.033700
     44 H12          1.7900    -0.8840    -0.5110 h1         1 Z0P       0.033700
     45 H21          3.0190     0.0890     1.4430 h1         1 Z0P       0.088700
     46 H31          1.6210     1.1330     3.2410 h1         1 Z0P       0.059700
     47 H32          1.6890     2.1100     1.7680 h1         1 Z0P       0.059700
     48 H51         -2.7000     1.1990     3.0870 hc         1 Z0P       0.072200
     49 H52         -2.6330     2.1760     1.6140 hc         1 Z0P       0.072200
     50 H61         -2.4630     4.2280     2.9840 hc         1 Z0P       0.057700
     51 H62         -2.5310     3.2510     4.4570 hc         1 Z0P       0.057700
     52 H71         -4.6960     3.3910     2.3260 hc         1 Z0P       0.040700
     53 H72         -4.7630     2.4140     3.7990 hc         1 Z0P       0.040700
     54 H81         -4.5280     5.4440     3.6950 hc         1 Z0P       0.043700
     55 H82         -4.5950     4.4670     5.1690 hc         1 Z0P       0.043700
     56 H91         -6.7590     4.6060     3.0380 hc         1 Z0P       0.040700
     57 H92         -6.8260     3.6290     4.5110 hc         1 Z0P       0.040700
     58 H101        -6.6580     5.6820     5.8810 hc         1 Z0P       0.041700
     59 H102        -6.5910     6.6590     4.4070 hc         1 Z0P       0.041700
     60 H111        -8.8910     4.8440     5.2230 hc         1 Z0P       0.040700
     61 H112        -8.8230     5.8220     3.7500 hc         1 Z0P       0.040700
     62 H121        -8.7220     6.8960     6.5920 hc         1 Z0P       0.041700
     63 H122        -8.6540     7.8740     5.1200 hc         1 Z0P       0.041700
     64 H131       -10.9540     6.0600     5.9350 hc         1 Z0P       0.040700
     65 H132       -10.8870     7.0360     4.4620 hc         1 Z0P       0.040700
     66 H141       -10.7860     8.1130     7.3030 hc         1 Z0P       0.040700
     67 H142       -10.7200     9.0890     5.8300 hc         1 Z0P       0.040700
     68 H151       -12.9520     8.2500     5.1740 hc         1 Z0P       0.040700
     69 H152       -13.0180     7.2740     6.6490 hc         1 Z0P       0.040700
     70 H161       -12.8490     9.3290     8.0150 hc         1 Z0P       0.040700
     71 H162       -12.7830    10.3040     6.5410 hc         1 Z0P       0.040700
     72 H171       -15.0150     9.4650     5.8860 hc         1 Z0P       0.040700
     73 H172       -15.0810     8.4890     7.3610 hc         1 Z0P       0.040700
     74 H181       -14.9130    10.5430     8.7270 hc         1 Z0P       0.039700
     75 H182       -14.8470    11.5190     7.2530 hc         1 Z0P       0.039700
     76 H191       -17.1390    11.4710     8.1800 hc         1 Z0P       0.032367
     77 H192       -17.1460     9.7050     8.0720 hc         1 Z0P       0.032367
     78 H193       -17.0800    10.6810     6.5980 hc         1 Z0P       0.032367
     79 H211         1.9590    -3.4400     3.7200 hc         1 Z0P       0.073700
     80 H212         1.1670    -3.9760     2.2320 hc         1 Z0P       0.073700
     81 H221         4.1410    -4.1860     2.8280 hc         1 Z0P       0.058700
     82 H222         3.3500    -4.7210     1.3390 hc         1 Z0P       0.058700
     83 H231         1.9690    -6.3050     2.6420 hc         1 Z0P       0.041200
     84 H232         2.7600    -5.7700     4.1310 hc         1 Z0P       0.041200
     85 H241         4.9430    -6.5160     3.2390 hc         1 Z0P       0.045200
     86 H242         4.1520    -7.0510     1.7500 hc         1 Z0P       0.045200
     87 H251         3.5630    -8.1010     4.5420 hc         1 Z0P       0.041200
     88 H252         2.7720    -8.6360     3.0530 hc         1 Z0P       0.041200
     89 H261         5.7460    -8.8450     3.6480 hc         1 Z0P       0.045700
     90 H262         4.9540    -9.3810     2.1600 hc         1 Z0P       0.045700
     91 H271         4.3670   -10.4300     4.9530 hc         1 Z0P       0.040700
     92 H272         3.5740   -10.9660     3.4650 hc         1 Z0P       0.040700
     93 H281         5.7570   -11.7110     2.5720 hc         1 Z0P       0.058700
     94 H282         6.5490   -11.1760     4.0610 hc         1 Z0P       0.058700
     95 H291         4.3770   -13.2960     3.8750 hc         1 Z0P       0.034200
     96 H292         5.1680   -12.7610     5.3640 hc         1 Z0P       0.034200
     97 H301         5.3910   -14.2200     4.1410 ha         1 Z0P       0.331000
     98 H311         7.2040   -13.6840     5.7070 ha         1 Z0P       0.330000
     99 H321         5.4320   -13.8550     6.3830 hc         1 Z0P       0.033200
    100 H322         7.0530   -13.8850     7.0900 hc         1 Z0P       0.033200
    101 H331         7.0250   -16.3570     7.0480 hc         1 Z0P       0.058200
    102 H332         5.4040   -16.3270     6.3390 hc         1 Z0P       0.058200
    103 H341         6.1730   -15.1700     9.0440 hc         1 Z0P       0.040700
    104 H342         4.5530   -15.1410     8.3350 hc         1 Z0P       0.040700
    105 H351         6.1480   -17.6430     9.0020 hc         1 Z0P       0.045200
    106 H352         4.5270   -17.6140     8.2930 hc         1 Z0P       0.045200
    107 H361         5.2960   -16.4560    10.9980 hc         1 Z0P       0.040200
    108 H362         3.6760   -16.4270    10.2890 hc         1 Z0P       0.040200
    109 H371         3.6500   -18.9000    10.2480 hc         1 Z0P       0.034033
    110 H372         5.2710   -18.9290    10.9560 hc         1 Z0P       0.034033
    111 H373         3.9090   -18.2970    11.8910 hc         1 Z0P       0.034033
    112 H1O         -0.3140    -0.2170    -0.8620 ho         1 Z0P       0.395000
@<TRIPOS>BOND
     1     2     1 1
     2     4     2 1
     3     2    43 1
     4     2    44 1
     5     8     3 1
     6     3     6 1
     7     5     4 1
     8     6     4 1
     9     4    45 1
    10    25     5 1
    11     6    46 1
    12     6    47 1
    13    25     7 2
    14    10     8 1
    15     8     9 2
    16    11    10 1
    17    10    48 1
    18    10    49 1
    19    12    11 1
    20    11    50 1
    21    11    51 1
    22    13    12 1
    23    12    52 1
    24    12    53 1
    25    13    14 1
    26    13    54 1
    27    13    55 1
    28    15    14 1
    29    14    56 1
    30    14    57 1
    31    15    16 1
    32    15    58 1
    33    15    59 1
    34    16    17 1
    35    16    60 1
    36    16    61 1
    37    18    17 1
    38    17    62 1
    39    17    63 1
    40    18    19 1
    41    18    64 1
    42    18    65 1
    43    19    20 1
    44    19    66 1
    45    19    67 1
    46    20    21 1
    47    20    68 1
    48    20    69 1
    49    21    22 1
    50    21    70 1
    51    21    71 1
    52    22    23 1
    53    22    72 1
    54    22    73 1
    55    23    24 1
    56    23    74 1
    57    23    75 1
    58    24    76 1
    59    24    77 1
    60    24    78 1
    61    26    25 1
    62    27    26 1
    63    26    79 1
    64    26    80 1
    65    28    27 1
    66    27    81 1
    67    27    82 1
    68    29    28 1
    69    28    83 1
    70    28    84 1
    71    30    29 1
    72    29    85 1
    73    29    86 1
    74    31    30 1
    75    30    87 1
    76    30    88 1
    77    32    31 1
    78    31    89 1
    79    31    90 1
    80    33    32 1
    81    32    91 1
    82    32    92 1
    83    34    33 1
    84    33    93 1
    85    33    94 1
    86    35    34 1
    87    34    95 1
    88    34    96 1
    89    36    35 2
    90    35    97 1
    91    36    37 1
    92    36    98 1
    93    38    37 1
    94    37    99 1
    95    37   100 1
    96    38    39 1
    97    38   101 1
    98    38   102 1
    99    40    39 1
   100    39   103 1
   101    39   104 1
   102    40    41 1
   103    40   105 1
   104    40   106 1
   105    41    42 1
   106    41   107 1
   107    41   108 1
   108    42   109 1
   109    42   110 1
   110    42   111 1
   111     1   112 1
@<TRIPOS>SUBSTRUCTURE
     1 Z0P         1 TEMP              0 ****  ****    0 ROOT
