@<TRIPOS>MOLECULE
Z0P
  112   111     1     0     0
SMALL
bcc


@<TRIPOS>ATOM
      1 O1         -0.7860   -0.8210   -0.1630 oh        1 Z0P     -0.595800
      2 C1          0.3690   -0.1020   -0.5330 c3        1 Z0P      0.122400
      3 O2         -0.2500    1.1720    1.8670 os        1 Z0P     -0.455900
      4 C2          1.3990   -0.0050    0.5950 c3        1 Z0P      0.102100
      5 O3          1.3470   -1.1930    1.4020 os        1 Z0P     -0.435900
      6 C3          1.1480    1.1620    1.5500 c3        1 Z0P      0.136400
      7 O4          2.7230   -2.1820   -0.0590 o         1 Z0P     -0.543000
      8 C4         -0.6510    2.0180    2.8690 c         1 Z0P      0.637100
      9 O5          0.2020    2.7300    3.4000 o         1 Z0P     -0.536000
     10 C5         -2.1150    1.9100    3.1570 c3        1 Z0P     -0.127400
     11 C6         -2.7240    3.2760    3.3940 c3        1 Z0P     -0.079400
     12 C7         -4.1710    3.1510    3.8200 c3        1 Z0P     -0.079400
     13 C8         -4.7920    4.5140    4.0420 c3        1 Z0P     -0.079400
     14 C9         -6.2380    4.3930    4.4720 c3        1 Z0P     -0.079400
     15 C10        -6.8600    5.7550    4.6930 c3        1 Z0P     -0.079400
     16 C11        -8.3060    5.6350    5.1240 c3        1 Z0P     -0.079400
     17 C12        -8.9280    6.9970    5.3450 c3        1 Z0P     -0.079400
     18 C13       -10.3740    6.8770    5.7750 c3        1 Z0P     -0.079400
     19 C14       -10.9960    8.2390    5.9970 c3        1 Z0P     -0.079400
     20 C15       -12.4430    8.1190    6.4270 c3        1 Z0P     -0.079400
     21 C16       -13.0650    9.4810    6.6480 c3        1 Z0P     -0.079400
     22 C17       -14.5110    9.3610    7.0780 c3        1 Z0P     -0.079400
     23 C18       -15.1350   10.7230    7.3000 c3        1 Z0P     -0.080400
     24 C19       -16.5750   10.6080    7.7280 c3        1 Z0P     -0.092100
     25 C20         2.0410   -2.2900    0.9600 c         1 Z0P      0.642100
     26 C21         1.8270   -3.4840    1.8370 c3        1 Z0P     -0.126400
     27 C22         3.0780   -4.3330    1.9170 c3        1 Z0P     -0.079400
     28 C23         2.8130   -5.6060    2.6900 c3        1 Z0P     -0.078400
     29 C24         4.0640   -6.4530    2.7900 c3        1 Z0P     -0.079400
     30 C25         3.8030   -7.7290    3.5600 c3        1 Z0P     -0.079400
     31 C26         5.0530   -8.5760    3.6590 c3        1 Z0P     -0.079400
     32 C27         4.7930   -9.8510    4.4320 c3        1 Z0P     -0.079400
     33 C28         6.0430  -10.6980    4.5300 c3        1 Z0P     -0.077400
     34 C29         5.7800  -11.9730    5.3060 c3        1 Z0P     -0.049200
     35 C30         6.9890  -12.8220    5.4180 c2        1 Z0P     -0.174200
     36 C31         7.0230  -13.9810    6.0850 c2        1 Z0P     -0.173200
     37 C32         5.8570  -14.5550    6.7960 c3        1 Z0P     -0.049200
     38 C33         6.1740  -15.8910    7.4350 c3        1 Z0P     -0.077400
     39 C34         4.9660  -16.4540    8.1530 c3        1 Z0P     -0.079400
     40 C35         5.2800  -17.7890    8.7930 c3        1 Z0P     -0.079400
     41 C36         4.0740  -18.3530    9.5120 c3        1 Z0P     -0.080400
     42 C37         4.3820  -19.6830   10.1510 c3        1 Z0P     -0.092100
     43 H11         0.8000   -0.6800   -1.3950 h1        1 Z0P      0.056700
     44 H12         0.0900    0.9350   -0.8620 h1        1 Z0P      0.056700
     45 H21         2.4310    0.1130    0.1580 h1        1 Z0P      0.087700
     46 H31         1.4050    2.1310    1.0480 h1        1 Z0P      0.068200
     47 H32         1.7450    1.0470    2.4920 h1        1 Z0P      0.068200
     48 H51        -2.6310    1.3900    2.3070 hc        1 Z0P      0.079700
     49 H52        -2.2280    1.2680    4.0730 hc        1 Z0P      0.079700
     50 H61        -2.6560    3.8860    2.4550 hc        1 Z0P      0.057700
     51 H62        -2.1350    3.8150    4.1840 hc        1 Z0P      0.057700
     52 H71        -4.7490    2.5970    3.0350 hc        1 Z0P      0.041700
     53 H72        -4.2350    2.5500    4.7660 hc        1 Z0P      0.041700
     54 H81        -4.7290    5.1140    3.0960 hc        1 Z0P      0.042700
     55 H82        -4.2100    5.0690    4.8250 hc        1 Z0P      0.042700
     56 H91        -6.8180    3.8370    3.6900 hc        1 Z0P      0.039700
     57 H92        -6.3000    3.7930    5.4190 hc        1 Z0P      0.039700
     58 H101       -6.2790    6.3110    5.4760 hc        1 Z0P      0.040700
     59 H102       -6.7970    6.3550    3.7470 hc        1 Z0P      0.040700
     60 H111       -8.8860    5.0790    4.3410 hc        1 Z0P      0.039700
     61 H112       -8.3680    5.0350    6.0700 hc        1 Z0P      0.039700
     62 H121       -8.8660    7.5970    4.3990 hc        1 Z0P      0.039700
     63 H122       -8.3480    7.5530    6.1280 hc        1 Z0P      0.039700
     64 H131      -10.4370    6.2770    6.7210 hc        1 Z0P      0.039700
     65 H132      -10.9550    6.3210    4.9920 hc        1 Z0P      0.039700
     66 H141      -10.9340    8.8390    5.0510 hc        1 Z0P      0.039700
     67 H142      -10.4160    8.7950    6.7800 hc        1 Z0P      0.039700
     68 H151      -13.0230    7.5640    5.6440 hc        1 Z0P      0.039700
     69 H152      -12.5050    7.5190    7.3720 hc        1 Z0P      0.039700
     70 H161      -12.4850   10.0370    7.4310 hc        1 Z0P      0.039700
     71 H162      -13.0020   10.0820    5.7030 hc        1 Z0P      0.039700
     72 H171      -14.5750    8.7610    8.0230 hc        1 Z0P      0.039700
     73 H172      -15.0920    8.8060    6.2950 hc        1 Z0P      0.039700
     74 H181      -15.0690   11.3220    6.3540 hc        1 Z0P      0.038700
     75 H182      -14.5520   11.2770    8.0830 hc        1 Z0P      0.038700
     76 H191      -17.1770   10.0800    6.9490 hc        1 Z0P      0.032700
     77 H192      -16.6590   10.0350    8.6830 hc        1 Z0P      0.032700
     78 H193      -17.0150   11.6220    7.8860 hc        1 Z0P      0.032700
     79 H211        1.5100   -3.1490    2.8600 hc        1 Z0P      0.081200
     80 H212        0.9800   -4.0740    1.3920 hc        1 Z0P      0.081200
     81 H221        3.4300   -4.5780    0.8800 hc        1 Z0P      0.057700
     82 H222        3.8970   -3.7500    2.4150 hc        1 Z0P      0.057700
     83 H231        2.4460   -5.3540    3.7200 hc        1 Z0P      0.041700
     84 H232        2.0020   -6.1930    2.1840 hc        1 Z0P      0.041700
     85 H241        4.4310   -6.7030    1.7590 hc        1 Z0P      0.042700
     86 H242        4.8760   -5.8670    3.2960 hc        1 Z0P      0.042700
     87 H251        3.4360   -7.4780    4.5900 hc        1 Z0P      0.040200
     88 H252        2.9910   -8.3150    3.0540 hc        1 Z0P      0.040200
     89 H261        5.4190   -8.8280    2.6290 hc        1 Z0P      0.040700
     90 H262        5.8660   -7.9900    4.1640 hc        1 Z0P      0.040700
     91 H271        3.9790  -10.4370    3.9280 hc        1 Z0P      0.039700
     92 H272        4.4270   -9.5990    5.4620 hc        1 Z0P      0.039700
     93 H281        6.4070  -10.9530    3.5000 hc        1 Z0P      0.041700
     94 H282        6.8560  -10.1130    5.0340 hc        1 Z0P      0.041700
     95 H291        5.4070  -11.7160    6.3350 hc        1 Z0P      0.047200
     96 H292        4.9600  -12.5570    4.8030 hc        1 Z0P      0.047200
     97 H301        7.8920  -12.4470    4.9090 ha        1 Z0P      0.122000
     98 H311        7.9550  -14.5690    6.1310 ha        1 Z0P      0.122000
     99 H321        5.5100  -13.8340    7.5870 hc        1 Z0P      0.047700
    100 H322        5.0020  -14.6770    6.0750 hc        1 Z0P      0.047700
    101 H331        6.5140  -16.6140    6.6470 hc        1 Z0P      0.041700
    102 H332        7.0210  -15.7700    8.1610 hc        1 Z0P      0.041700
    103 H341        4.6260  -15.7310    8.9410 hc        1 Z0P      0.039700
    104 H342        4.1190  -16.5750    7.4280 hc        1 Z0P      0.039700
    105 H351        6.1280  -17.6690    9.5190 hc        1 Z0P      0.039700
    106 H352        5.6200  -18.5130    8.0060 hc        1 Z0P      0.039700
    107 H361        3.2270  -18.4720    8.7850 hc        1 Z0P      0.038700
    108 H362        3.7340  -17.6280   10.2980 hc        1 Z0P      0.038700
    109 H371        3.4800  -20.0800   10.6750 hc        1 Z0P      0.032700
    110 H372        5.2070  -19.5800   10.8970 hc        1 Z0P      0.032700
    111 H373        4.6980  -20.4270    9.3800 hc        1 Z0P      0.032700
    112 H1O        -1.0770   -0.4840    0.6940 ho        1 Z0P      0.416000
@<TRIPOS>BOND
     1    1    2 1   
     2    1  112 1   
     3    2    4 1   
     4    2   43 1   
     5    2   44 1   
     6    3    6 1   
     7    3    8 1   
     8    4    5 1   
     9    4    6 1   
    10    4   45 1   
    11    5   25 1   
    12    6   46 1   
    13    6   47 1   
    14    7   25 2   
    15    8    9 2   
    16    8   10 1   
    17   10   11 1   
    18   10   48 1   
    19   10   49 1   
    20   11   12 1   
    21   11   50 1   
    22   11   51 1   
    23   12   13 1   
    24   12   52 1   
    25   12   53 1   
    26   13   14 1   
    27   13   54 1   
    28   13   55 1   
    29   14   15 1   
    30   14   56 1   
    31   14   57 1   
    32   15   16 1   
    33   15   58 1   
    34   15   59 1   
    35   16   17 1   
    36   16   60 1   
    37   16   61 1   
    38   17   18 1   
    39   17   62 1   
    40   17   63 1   
    41   18   19 1   
    42   18   64 1   
    43   18   65 1   
    44   19   20 1   
    45   19   66 1   
    46   19   67 1   
    47   20   21 1   
    48   20   68 1   
    49   20   69 1   
    50   21   22 1   
    51   21   70 1   
    52   21   71 1   
    53   22   23 1   
    54   22   72 1   
    55   22   73 1   
    56   23   24 1   
    57   23   74 1   
    58   23   75 1   
    59   24   76 1   
    60   24   77 1   
    61   24   78 1   
    62   25   26 1   
    63   26   27 1   
    64   26   79 1   
    65   26   80 1   
    66   27   28 1   
    67   27   81 1   
    68   27   82 1   
    69   28   29 1   
    70   28   83 1   
    71   28   84 1   
    72   29   30 1   
    73   29   85 1   
    74   29   86 1   
    75   30   31 1   
    76   30   87 1   
    77   30   88 1   
    78   31   32 1   
    79   31   89 1   
    80   31   90 1   
    81   32   33 1   
    82   32   91 1   
    83   32   92 1   
    84   33   34 1   
    85   33   93 1   
    86   33   94 1   
    87   34   35 1   
    88   34   95 1   
    89   34   96 1   
    90   35   36 2   
    91   35   97 1   
    92   36   37 1   
    93   36   98 1   
    94   37   38 1   
    95   37   99 1   
    96   37  100 1   
    97   38   39 1   
    98   38  101 1   
    99   38  102 1   
   100   39   40 1   
   101   39  103 1   
   102   39  104 1   
   103   40   41 1   
   104   40  105 1   
   105   40  106 1   
   106   41   42 1   
   107   41  107 1   
   108   41  108 1   
   109   42  109 1   
   110   42  110 1   
   111   42  111 1   
@<TRIPOS>SUBSTRUCTURE
     1 Z0P         1 TEMP              0 ****  ****    0 ROOT
