@<TRIPOS>MOLECULE
molecule
   20    22     1     0     0
SMALL
bcc


@<TRIPOS>ATOM
      1 C2           0.0000     0.0000     0.0000 ca         1 Z0W       0.644900
      2 N3           1.3200     0.0000     0.0000 nb         1 Z0W      -0.712000
      3 C4           2.0090     0.0000     1.1300 ca         1 Z0W       0.434200
      4 C5           1.3170     0.0000     2.3370 ca         1 Z0W      -0.247800
      5 N1          -0.7010     0.0000     1.1140 nb         1 Z0W      -0.693000
      6 C6          -0.0880     0.0000     2.2930 cp         1 Z0W       0.460800
      7 C7          -0.5460    -0.0000     3.6920 cp         1 Z0W      -0.201500
      8 C8          -1.8060    -0.0000     4.2890 ca         1 Z0W      -0.046000
      9 C12          0.6090    -0.0000     4.4910 ca         1 Z0W       0.016800
     10 C11          0.4790    -0.0000     5.8760 ca         1 Z0W      -0.165000
     11 C10         -0.7730    -0.0000     6.4510 ca         1 Z0W      -0.081000
     12 C9          -1.9130    -0.0000     5.6620 ca         1 Z0W      -0.169000
     13 N2           1.7140    -0.0000     3.6600 na         1 Z0W      -0.182300
     14 H2          -0.5240    -0.0000    -0.9480 h5         1 Z0W       0.062100
     15 HN2          2.6650    -0.0000     3.9720 hn         1 Z0W       0.302700
     16 H4           3.0920     0.0000     1.1160 h4         1 Z0W       0.026100
     17 H8          -2.6980     0.0000     3.6750 ha         1 Z0W       0.147000
     18 H9          -2.8910    -0.0000     6.1270 ha         1 Z0W       0.136000
     19 H11          1.3620    -0.0000     6.5020 ha         1 Z0W       0.132000
     20 H10         -0.8680    -0.0000     7.5300 ha         1 Z0W       0.135000
@<TRIPOS>BOND
     1     1     2 ar
     2     1     5 ar
     3     2     3 ar
     4     3     4 ar
     5     4     6 ar
     6     4    13 1
     7     5     6 ar
     8     6     7 1
     9     7     8 ar
    10     7     9 ar
    11     8    12 ar
    12     9    10 ar
    13     9    13 1
    14    10    11 ar
    15    11    12 ar
    16     1    14 1
    17     3    16 1
    18     8    17 1
    19    12    18 1
    20    10    19 1
    21    11    20 1
    22    13    15 1
@<TRIPOS>SUBSTRUCTURE
     1 Z0W         1 TEMP              0 ****  ****    0 ROOT
