@<TRIPOS>MOLECULE
Z0W
   20    22     1     0     0
SMALL
bcc


@<TRIPOS>ATOM
      1 C2          0.0020   -0.0000    0.0180 ca        1 Z0W      0.594900
      2 N3          1.3650   -0.0000   -0.0370 nb        1 Z0W     -0.673000
      3 C4          2.0350   -0.0000    1.1270 ca        1 Z0W      0.404200
      4 C5          1.3360    0.0000    2.3520 ca        1 Z0W     -0.239800
      5 N1         -0.7930   -0.0000    1.1210 nb        1 Z0W     -0.644000
      6 C6         -0.1280    0.0000    2.2910 cp        1 Z0W      0.441800
      7 C7         -0.5830    0.0000    3.6750 cp        1 Z0W     -0.198500
      8 C8         -1.8390    0.0000    4.2680 ca        1 Z0W     -0.046000
      9 C12         0.6090    0.0000    4.4950 ca        1 Z0W      0.011800
     10 C11         0.5090    0.0000    5.8930 ca        1 Z0W     -0.169000
     11 C10        -0.7650    0.0000    6.4520 ca        1 Z0W     -0.084000
     12 C9         -1.9200    0.0000    5.6590 ca        1 Z0W     -0.171000
     13 N2          1.7500    0.0000    3.6810 na        1 Z0W     -0.183300
     14 H2         -0.5240   -0.0000   -0.9590 h5        1 Z0W      0.055100
     15 HN2         2.6830   -0.0000    3.9950 hn        1 Z0W      0.308700
     16 H4          3.1370   -0.0000    1.0740 h4        1 Z0W      0.028100
     17 H8         -2.7450    0.0000    3.6440 ha        1 Z0W      0.153000
     18 H9         -2.9070    0.0000    6.1450 ha        1 Z0W      0.137000
     19 H11         1.4050    0.0000    6.5270 ha        1 Z0W      0.139000
     20 H10        -0.8680   -0.0000    7.5480 ha        1 Z0W      0.135000
@<TRIPOS>BOND
     1    1    2 ar  
     2    1    5 ar  
     3    1   14 1   
     4    2    3 ar  
     5    3    4 ar  
     6    3   16 1   
     7    4    6 ar  
     8    4   13 1   
     9    5    6 ar  
    10    6    7 1   
    11    7    8 ar  
    12    7    9 ar  
    13    8   12 ar  
    14    8   17 1   
    15    9   10 ar  
    16    9   13 1   
    17   10   11 ar  
    18   10   19 1   
    19   11   12 ar  
    20   11   20 1   
    21   12   18 1   
    22   13   15 1   
@<TRIPOS>SUBSTRUCTURE
     1 Z0W         1 TEMP              0 ****  ****    0 ROOT
