@<TRIPOS>MOLECULE
molecule
   43    46     1     0     0
SMALL
bcc


@<TRIPOS>ATOM
      1 Cl32         0.0000     0.0000     0.0000 cl         1 Z12      -0.072400
      2 C31          1.7360     0.0000     0.0000 ca         1 Z12       0.124400
      3 C30          2.4280     0.0000     1.1980 ca         1 Z12      -0.138000
      4 C28          3.8110    -0.0000     1.1970 ca         1 Z12       0.088400
      5 Cl29         4.6800    -0.0010     2.7000 cl         1 Z12      -0.080400
      6 C27          4.5020    -0.0010    -0.0020 ca         1 Z12      -0.143000
      7 C26          3.8090    -0.0020    -1.1990 ca         1 Z12      -0.007000
      8 C25          2.4280    -0.0060    -1.1990 ca         1 Z12      -0.314500
      9 S20          1.5470    -0.0140    -2.7240 sy         1 Z12       1.426200
     10 O21          0.5670     1.0110    -2.6270 o          1 Z12      -0.619800
     11 O22          2.5260    -0.0560    -3.7530 o          1 Z12      -0.619800
     12 N23          0.7190    -1.4460    -2.8060 nu         1 Z12      -0.766500
     13 C13          1.4170    -2.6580    -2.8050 ca         1 Z12       0.156600
     14 C14          0.9950    -3.7020    -1.9930 ca         1 Z12      -0.143000
     15 C15          1.6860    -4.9000    -1.9920 ca         1 Z12       0.037400
     16 Cl16         1.1580    -6.2050    -0.9770 cl         1 Z12      -0.062400
     17 C17          2.8000    -5.0580    -2.8040 ca         1 Z12       0.092100
     18 C18          3.2220    -4.0150    -3.6170 ca         1 Z12       0.037400
     19 Cl19         4.6160    -4.2150    -4.6320 cl         1 Z12      -0.062400
     20 C12          2.5290    -2.8200    -3.6210 ca         1 Z12      -0.143000
     21 O11          3.4790    -6.2380    -2.8040 os         1 Z12      -0.227200
     22 C8           3.0950    -7.1950    -3.6890 ca         1 Z12       0.006800
     23 C7           3.7490    -8.3980    -3.7250 ca         1 Z12      -0.114000
     24 C6           3.3180    -9.3600    -4.6570 ca         1 Z12      -0.121300
     25 C1           3.9400   -10.6160    -4.7510 ca         1 Z12      -0.117000
     26 C9           2.0280    -6.9580    -4.5610 ca         1 Z12       0.374200
     27 N10          1.6310    -7.8590    -5.4240 nb         1 Z12      -0.647000
     28 C5           2.2320    -9.0500    -5.5130 ca         1 Z12       0.389600
     29 C4           1.8000   -10.0110    -6.4440 ca         1 Z12      -0.152300
     30 C3           2.4260   -11.2180    -6.5090 ca         1 Z12      -0.129000
     31 C2           3.4930   -11.5210    -5.6650 ca         1 Z12      -0.116000
     32 H30          1.8870     0.0420     2.1360 ha         1 Z12       0.165000
     33 H27          5.5850     0.0010    -0.0020 ha         1 Z12       0.158000
     34 H26          4.3510    -0.0040    -2.1370 ha         1 Z12       0.170000
     35 HN23        -0.2770    -1.4430    -2.9000 hn         1 Z12       0.474800
     36 H14          0.1020    -3.5920    -1.3900 ha         1 Z12       0.180000
     37 H12          2.8590    -2.0050    -4.2550 ha         1 Z12       0.180000
     38 H7           4.7140    -8.5050    -3.2440 ha         1 Z12       0.155000
     39 H1           4.7700   -10.8630    -4.1010 ha         1 Z12       0.136000
     40 H9           1.5160    -6.0040    -4.5210 h4         1 Z12       0.029100
     41 H4           0.9730    -9.7920    -7.1080 ha         1 Z12       0.149000
     42 H3           2.0890   -11.9550    -7.2280 ha         1 Z12       0.134000
     43 H2           3.9730   -12.4890    -5.7380 ha         1 Z12       0.132000
@<TRIPOS>BOND
     1     1     2 1
     2     2     3 ar
     3     2     8 ar
     4     3     4 ar
     5     4     5 1
     6     4     6 ar
     7     6     7 ar
     8     7     8 ar
     9     8     9 1
    10     9    10 2
    11     9    11 2
    12     9    12 1
    13    12    13 1
    14    13    14 ar
    15    13    20 ar
    16    14    15 ar
    17    15    16 1
    18    15    17 ar
    19    17    18 ar
    20    17    21 1
    21    18    19 1
    22    18    20 ar
    23    21    22 1
    24    22    23 ar
    25    22    26 ar
    26    23    24 ar
    27    24    25 ar
    28    24    28 ar
    29    25    31 ar
    30    26    27 ar
    31    27    28 ar
    32    28    29 ar
    33    29    30 ar
    34    30    31 ar
    35     3    32 1
    36     6    33 1
    37     7    34 1
    38    12    35 1
    39    14    36 1
    40    20    37 1
    41    23    38 1
    42    25    39 1
    43    26    40 1
    44    29    41 1
    45    30    42 1
    46    31    43 1
@<TRIPOS>SUBSTRUCTURE
     1 Z12         1 TEMP              0 ****  ****    0 ROOT
