@<TRIPOS>MOLECULE
Z13
   34    35     1     0     0
SMALL
bcc


@<TRIPOS>ATOM
      1 F2           0.0000     0.0000     0.0000 f          1 Z13      -0.207967
      2 F3           1.8660     0.0000     1.3180 f          1 Z13      -0.207967
      3 F4           1.8650    -1.1420    -0.6600 f          1 Z13      -0.207967
      4 N1           2.1870     5.5150    -3.1850 n2         1 Z13      -0.515900
      5 C2           1.9820     6.6930    -2.6940 ce         1 Z13       0.460800
      6 C4           2.5920     2.3240    -2.7250 ca         1 Z13      -0.093000
      7 C5           2.8230     3.4870    -2.0150 ca         1 Z13      -0.063300
      8 C6           2.5930     3.5210    -0.6520 ca         1 Z13      -0.093000
      9 C7           2.1320     2.3930    -0.0010 ca         1 Z13      -0.040500
     10 C8           2.1250     1.1980    -2.0750 ca         1 Z13      -0.040500
     11 C15          1.9010     1.2300    -0.7100 ca         1 Z13      -0.209300
     12 C16          1.3990     0.0000     0.0000 c3         1 Z13       0.640200
     13 H1           3.9280     4.4230    -3.5770 h1         1 Z13       0.018700
     14 H2           3.9280     5.3070    -2.0450 h1         1 Z13       0.018700
     15 H5           2.6540     7.0900    -1.9430 h4         1 Z13      -0.039200
     16 H8           2.7680     2.2980    -3.7940 ha         1 Z13       0.113000
     17 H9           2.7750     4.4330    -0.0950 ha         1 Z13       0.113000
     18 H10          1.9540     2.4190     1.0680 ha         1 Z13       0.118500
     19 H11          1.9440     0.2860    -2.6320 ha         1 Z13       0.118500
     20 C3           0.8350     7.4980    -3.1590 ca         1 Z13      -0.125900
     21 C9           0.6100     8.7710    -2.6290 ca         1 Z13      -0.078000
     22 C10         -0.4630     9.5170    -3.0680 ca         1 Z13      -0.050000
     23 C11         -1.3180     9.0070    -4.0300 ca         1 Z13      -0.201300
     24 C12         -1.1010     7.7460    -4.5580 ca         1 Z13      -0.050000
     25 C13         -0.0280     6.9910    -4.1320 ca         1 Z13      -0.078000
     26 C14         -2.4880     9.8280    -4.5040 c3         1 Z13       0.639200
     27 H3           1.2780     9.1710    -1.8770 ha         1 Z13       0.121000
     28 H4          -0.6380    10.5040    -2.6590 ha         1 Z13       0.119500
     29 H6          -1.7730     7.3530    -5.3120 ha         1 Z13       0.119500
     30 H7           0.1400     6.0040    -4.5460 ha         1 Z13       0.121000
     31 F6          -2.0990    10.6080    -5.5980 f          1 Z13      -0.207967
     32 F5          -3.5310     8.9760    -4.8870 f          1 Z13      -0.207967
     33 F1          -2.9240    10.6610    -3.4690 f          1 Z13      -0.207967
     34 C1           3.3260     4.7180    -2.7250 c3         1 Z13       0.200100
@<TRIPOS>BOND
     1     1    12 1   
     2     2    12 1   
     3     3    12 1   
     4     4     5 2   
     5     4    34 1   
     6     5    15 1   
     7     5    20 1   
     8     6     7 ar  
     9     6    10 ar  
    10     6    16 1   
    11     7     8 ar  
    12     7    34 1   
    13     8     9 ar  
    14     8    17 1   
    15     9    11 ar  
    16     9    18 1   
    17    10    11 ar  
    18    10    19 1   
    19    11    12 1   
    20    13    34 1   
    21    14    34 1   
    22    20    21 ar  
    23    20    25 ar  
    24    21    22 ar  
    25    21    27 1   
    26    22    23 ar  
    27    22    28 1   
    28    23    24 ar  
    29    23    26 1   
    30    24    25 ar  
    31    24    29 1   
    32    25    30 1   
    33    26    31 1   
    34    26    32 1   
    35    26    33 1   
@<TRIPOS>SUBSTRUCTURE
     1 Z13         1 TEMP              0 ****  ****    0 ROOT
