@<TRIPOS>MOLECULE
Z14
   50    50     1     0     0
SMALL
bcc


@<TRIPOS>ATOM
      1 N01         0.1470    0.2920   -0.0820 n3        1 Z14     -0.241000
      2 N02         2.9720   -2.2690    1.9330 n         1 Z14     -0.385000
      3 N03        -3.7050    2.8810    0.4500 n2        1 Z14     -0.230000
      4 N04        -3.9100    0.6500    1.4980 n2        1 Z14     -0.230000
      5 N05         2.9320   -0.6560   -3.9280 n3        1 Z14     -0.145000
      6 N06         5.1750   -0.2540   -7.3320 n3        1 Z14     -0.226000
      7 N07        -5.4580    2.3910    1.9830 nh        1 Z14     -0.345000
      8 C09         3.7180   -0.8270   -0.2500 c1        1 Z14     -0.214000
      9 C10         2.4780   -0.3970    0.3780 c3        1 Z14     -0.110000
     10 C11         1.3310   -0.1050   -0.5780 c2        1 Z14      0.185000
     11 C12         1.5750   -0.1930   -1.9690 c2        1 Z14     -0.336000
     12 C13         2.8150   -0.5660   -2.5080 c2        1 Z14      0.294000
     13 C14         3.8880   -0.8550   -1.6010 c2        1 Z14     -0.260000
     14 C16        -0.9960    0.6330   -0.9060 c3        1 Z14      0.017000
     15 C17        -2.1540    1.1080   -0.1050 c2        1 Z14     -0.308000
     16 C18        -2.6440    2.4260   -0.2230 c2        1 Z14      0.033000
     17 C19        -4.3340    1.9700    1.3050 c2        1 Z14      0.184000
     18 C20        -2.8440    0.2630    0.7920 c2        1 Z14      0.033000
     19 C21         3.5000   -1.8830   -4.4950 c3        1 Z14     -0.076000
     20 C22         4.7190   -1.6720   -5.3900 c3        1 Z14     -0.216000
     21 C23         2.4020    0.3210   -4.6400 c1        1 Z14     -0.152000
     22 C24        -0.6790    1.8390   -4.2820 c3        1 Z14     -0.288000
     23 C25         4.3240   -0.9380   -6.6220 c1        1 Z14     -0.163000
     24 O26         0.9700   -1.1980    2.1060 o         1 Z14     -0.432000
     25 O27         5.8640   -0.3050   -2.6910 o         1 Z14     -0.503700
     26 O28         5.7130   -2.2590   -1.9410 o         1 Z14     -0.503700
     27 HN01       -0.0060    0.2250    0.9110 hn        1 Z14      0.279000
     28 HN02        3.8680   -2.3230    1.4990 hn        1 Z14      0.252000
     29 HN0A        2.7600   -2.8460    2.7090 hn        1 Z14      0.252000
     30 HN06        6.1470   -0.1260   -7.1300 hn        1 Z14      0.194500
     31 HN0B        4.8450    0.2030   -8.1520 hn        1 Z14      0.194500
     32 HN07       -5.7310    3.3410    1.9330 hn        1 Z14      0.247000
     33 HN0C       -5.8730    1.7970    2.6580 hn        1 Z14      0.247000
     34 H09         2.7470    0.5970    0.8740 hc        1 Z14      0.190000
     35 H12         0.7650    0.0660   -2.6780 ha        1 Z14      0.174000
     36 H16        -0.6840    1.4320   -1.6460 h1        1 Z14      0.112000
     37 H16A       -1.3000   -0.2800   -1.5020 h1        1 Z14      0.112000
     38 H18        -2.1590    3.1570   -0.8980 h4        1 Z14      0.171000
     39 H20        -2.5180   -0.7830    0.9550 h4        1 Z14      0.171000
     40 H21         2.6850   -2.3560   -5.1180 h1        1 Z14      0.110000
     41 H21A        3.7680   -2.6050   -3.6740 h1        1 Z14      0.110000
     42 H22         5.5530   -1.1830   -4.8140 hc        1 Z14      0.115500
     43 H22A        5.0810   -2.6930   -5.6990 hc        1 Z14      0.115500
     44 H23        -0.7850    2.7220   -3.6150 hc        1 Z14      0.072000
     45 H23A        2.5050    0.2300   -5.7420 ha        1 Z14      0.096000
     46 H24         0.4000    1.5720   -4.3840 hc        1 Z14      0.072000
     47 H24A       -1.0970    2.0830   -5.2830 hc        1 Z14      0.072000
     48 H25        -1.2380    0.9790   -3.8510 hc        1 Z14      0.072000
     49 C15         2.0780   -1.3290    1.5320 c2        1 Z14      0.334000
     50 N08         5.2530   -1.1620   -2.1070 no        1 Z14      0.853400
@<TRIPOS>BOND
     1    1   10 1
     2    1   14 1
     3    1   27 1
     4    2   28 1
     5    2   29 1
     6    2   49 1
     7    3   16 1
     8    3   17 1
     9    4   17 1
    10    4   18 1
    11    5   12 1
    12    5   19 1
    13    5   21 1
    14    6   23 1
    15    6   30 1
    16    6   31 1
    17    7   17 1
    18    7   32 1
    19    7   33 1
    20    8    9 1
    21    8   13 1
    22    9   10 1
    23    9   34 1
    24    9   49 1
    25   10   11 1
    26   11   12 1
    27   11   35 1
    28   12   13 1
    29   13   50 1
    30   14   15 1
    31   14   36 1
    32   14   37 1
    33   15   16 1
    34   15   18 1
    35   16   38 1
    36   18   39 1
    37   19   20 1
    38   19   40 1
    39   19   41 1
    40   20   23 1
    41   20   42 1
    42   20   43 1
    43   21   45 1
    44   22   44 1
    45   22   46 1
    46   22   47 1
    47   22   48 1
    48   24   49 1
    49   25   50 2
    50   26   50 2
@<TRIPOS>SUBSTRUCTURE
     1 Z14         1 TEMP              0 ****  ****    0 ROOT
