@<TRIPOS>MOLECULE
Z15
   35    36     1     0     0
SMALL
bcc


@<TRIPOS>ATOM
      1 C1          0.1130   -0.1790   -0.0180 ca        1 Z15      0.093100
      2 O1         -0.5500   -0.2450   -1.2260 oh        1 Z15     -0.505100
      3 C2          1.5150   -0.0170   -0.0690 ca        1 Z15     -0.086300
      4 C3          2.2230    0.0840    1.1240 ca        1 Z15     -0.089000
      5 C4          1.5500    0.0230    2.3590 ca        1 Z15      0.108100
      6 O4          2.3470    0.1360    3.4720 oh        1 Z15     -0.486100
      7 C5          0.1560   -0.1430    2.3960 ca        1 Z15     -0.030600
      8 CL5        -0.6810   -0.2250    3.8730 cl        1 Z15     -0.081400
      9 C6         -0.5640   -0.2430    1.2020 ca        1 Z15     -0.169000
     10 C1'         2.2210    0.0250   -1.3930 c3        1 Z15      0.167400
     11 C2'         2.3750    1.4710   -1.9060 c3        1 Z15      0.088100
     12 O2'         1.1380    2.0340   -2.3160 oh        1 Z15     -0.607800
     13 C3'         3.2650    1.5030   -3.1600 c3        1 Z15      0.106100
     14 O3'         3.6040    2.8360   -3.5030 oh        1 Z15     -0.607800
     15 C4'         4.5890    0.7710   -2.8980 c3        1 Z15      0.123100
     16 O4'         5.3300    0.6350   -4.0980 oh        1 Z15     -0.595800
     17 C5'         4.2880   -0.6430   -2.3840 c3        1 Z15      0.099100
     18 O5'         3.5090   -0.5660   -1.1880 os        1 Z15     -0.420600
     19 C6'         5.5750   -1.3740   -1.9920 c3        1 Z15      0.140400
     20 O6'         5.3190   -2.7190   -1.6580 oh        1 Z15     -0.594800
     21 HO1        -1.4700   -0.4900   -1.0520 ho        1 Z15      0.429000
     22 H3          3.3190    0.1990    1.1130 ha        1 Z15      0.177000
     23 HO4         1.7860    0.0640    4.2600 ho        1 Z15      0.431000
     24 H6         -1.6560   -0.3760    1.2240 ha        1 Z15      0.154000
     25 H1'         1.6460   -0.5780   -2.1530 h1        1 Z15      0.079700
     26 H2'         2.8240    2.1170   -1.1010 h1        1 Z15      0.065700
     27 HO2'        0.4580    1.7360   -1.6980 ho        1 Z15      0.424000
     28 H3'         2.7200    1.0230   -4.0210 h1        1 Z15      0.063700
     29 HO3'        2.7720    3.3200   -3.5910 ho        1 Z15      0.428000
     30 H4'         5.1930    1.3440   -2.1400 h1        1 Z15      0.061700
     31 HO4'        5.4110    1.5250   -4.4680 ho        1 Z15      0.425000
     32 H5'         3.7310   -1.2300   -3.1650 h1        1 Z15      0.071700
     33 H6'         6.0710   -0.8440   -1.1370 h1        1 Z15      0.064700
     34 H6'A        6.2600   -1.4070   -2.8820 h1        1 Z15      0.064700
     35 HO6'        4.6990   -2.7140   -0.9180 ho        1 Z15      0.410000
@<TRIPOS>BOND
     1    1    2 1   
     2    1    3 ar  
     3    1    9 ar  
     4    2   21 1   
     5    3    4 ar  
     6    3   10 1   
     7    4    5 ar  
     8    4   22 1   
     9    5    6 1   
    10    5    7 ar  
    11    6   23 1   
    12    7    8 1   
    13    7    9 ar  
    14    9   24 1   
    15   10   11 1   
    16   10   18 1   
    17   10   25 1   
    18   11   12 1   
    19   11   13 1   
    20   11   26 1   
    21   12   27 1   
    22   13   14 1   
    23   13   15 1   
    24   13   28 1   
    25   14   29 1   
    26   15   16 1   
    27   15   17 1   
    28   15   30 1   
    29   16   31 1   
    30   17   18 1   
    31   17   19 1   
    32   17   32 1   
    33   19   20 1   
    34   19   33 1   
    35   19   34 1   
    36   20   35 1   
@<TRIPOS>SUBSTRUCTURE
     1 Z15         1 TEMP              0 ****  ****    0 ROOT
