@<TRIPOS>MOLECULE
molecule
   35    36     1     0     0
SMALL
bcc


@<TRIPOS>ATOM
      1 C1           0.0000     0.0000     0.0000 ca         1 Z16       0.138100
      2 O1          -0.6800     0.0010    -1.1770 oh         1 Z16      -0.487100
      3 C2           1.3860     0.0000     0.0000 ca         1 Z16      -0.081300
      4 C3           2.0780     0.0000     1.1960 ca         1 Z16      -0.105000
      5 C4           1.3850    -0.0010     2.3980 ca         1 Z16       0.089100
      6 O4           2.0670    -0.0020     3.5750 oh         1 Z16      -0.516100
      7 C5          -0.0020    -0.0000     2.3990 ca         1 Z16      -0.126000
      8 C6          -0.6940     0.0050     1.2030 ca         1 Z16      -0.021600
      9 Cl6         -2.4290     0.0110     1.2030 cl         1 Z16      -0.095400
     10 C1'          2.1400     0.0010    -1.3050 c3         1 Z16       0.200400
     11 C2'          2.2870     1.4390    -1.8090 c3         1 Z16       0.112100
     12 O2'          0.9940     1.9920    -2.0610 oh         1 Z16      -0.581800
     13 C3'          3.1050     1.4380    -3.1040 c3         1 Z16       0.105100
     14 O3'          3.3100     2.7810    -3.5420 oh         1 Z16      -0.607800
     15 C4'          4.4590     0.7730    -2.8380 c3         1 Z16       0.104100
     16 O4'          5.2020     0.6990    -4.0560 oh         1 Z16      -0.602800
     17 C5'          4.2290    -0.6390    -2.2950 c3         1 Z16       0.146100
     18 O5'          3.4360    -0.5680    -1.1080 os         1 Z16      -0.405600
     19 C6'          5.5750    -1.2880    -1.9710 c3         1 Z16       0.151400
     20 O6'          5.3680    -2.6460    -1.5740 oh         1 Z16      -0.600800
     21 HO1         -1.2380    -0.7580    -1.2180 ho         1 Z16       0.421000
     22 H3           3.1610     0.0000     1.1960 ha         1 Z16       0.164000
     23 HO4          2.1840    -0.8900     3.8700 ho         1 Z16       0.421000
     24 H5          -0.5430     0.0010     3.3380 ha         1 Z16       0.155000
     25 H1'          1.5990    -0.5830    -2.0400 h1         1 Z16       0.069700
     26 H2'          2.7990     2.0320    -1.0600 h1         1 Z16       0.055700
     27 HO2'         1.0000     2.9130    -1.8590 ho         1 Z16       0.412000
     28 H3'          2.5730     0.8800    -3.8660 h1         1 Z16       0.062700
     29 HO3'         2.9410     2.8910    -4.4020 ho         1 Z16       0.415000
     30 H4'          5.0090     1.3540    -2.1080 h1         1 Z16       0.055700
     31 HO4'         5.8680     1.3670    -4.0590 ho         1 Z16       0.413000
     32 H5'          3.7080    -1.2300    -3.0390 h1         1 Z16       0.065700
     33 H6'          6.2100    -1.2610    -2.8490 h1         1 Z16       0.036700
     34 H6'A         6.0530    -0.7450    -1.1640 h1         1 Z16       0.036700
     35 HO6'         6.2000    -3.0800    -1.4910 ho         1 Z16       0.403000
@<TRIPOS>BOND
     1     3     1 ar
     2     1     2 1
     3     1     8 ar
     4     2    21 1
     5    10     3 1
     6     4     3 ar
     7     4     5 ar
     8     4    22 1
     9     6     5 1
    10     5     7 ar
    11     6    23 1
    12     7     8 ar
    13     7    24 1
    14     8     9 1
    15    11    10 1
    16    10    18 1
    17    10    25 1
    18    13    11 1
    19    12    11 1
    20    11    26 1
    21    12    27 1
    22    14    13 1
    23    13    15 1
    24    13    28 1
    25    14    29 1
    26    16    15 1
    27    15    17 1
    28    15    30 1
    29    16    31 1
    30    17    19 1
    31    17    18 1
    32    17    32 1
    33    20    19 1
    34    19    33 1
    35    19    34 1
    36    20    35 1
@<TRIPOS>SUBSTRUCTURE
     1 Z16         1 TEMP              0 ****  ****    0 ROOT
