@<TRIPOS>MOLECULE
Z16
   35    36     1     0     0
SMALL
bcc


@<TRIPOS>ATOM
      1 C1          0.0570   -0.1330   -0.0460 ca        1 Z16      0.094100
      2 O1         -0.5570   -0.2520   -1.2730 oh        1 Z16     -0.504100
      3 C2          1.4550    0.0500   -0.0640 ca        1 Z16     -0.078300
      4 C3          2.1390    0.2080    1.1410 ca        1 Z16     -0.150000
      5 C4          1.4370    0.1770    2.3530 ca        1 Z16      0.102100
      6 O4          2.0550    0.3270    3.5740 oh        1 Z16     -0.491100
      7 C5          0.0470   -0.0090    2.3820 ca        1 Z16     -0.109000
      8 C6         -0.6370   -0.1620    1.1770 ca        1 Z16     -0.031600
      9 CL6        -2.3220   -0.3910    1.2120 cl        1 Z16     -0.079400
     10 C1'         2.1920    0.0580   -1.3710 c3        1 Z16      0.166400
     11 C2'         2.3370    1.4880   -1.9310 c3        1 Z16      0.089100
     12 O2'         1.1040    2.0160   -2.3930 oh        1 Z16     -0.606800
     13 C3'         3.2600    1.4920   -3.1630 c3        1 Z16      0.106100
     14 O3'         3.5890    2.8180   -3.5400 oh        1 Z16     -0.608800
     15 C4'         4.5870    0.7890   -2.8420 c3        1 Z16      0.123100
     16 O4'         5.3610    0.6250   -4.0170 oh        1 Z16     -0.595800
     17 C5'         4.2930   -0.6110   -2.2890 c3        1 Z16      0.099100
     18 O5'         3.4840   -0.5040   -1.1140 os        1 Z16     -0.424600
     19 C6'         5.5800   -1.3110   -1.8430 c3        1 Z16      0.140400
     20 O6'         5.3370   -2.6510   -1.4790 oh        1 Z16     -0.594800
     21 HO1        -1.4800   -0.5170   -1.1300 ho        1 Z16      0.437000
     22 H3          3.2320    0.3400    1.1280 ha        1 Z16      0.159000
     23 HO4         3.0070    0.4150    3.4170 ho        1 Z16      0.425000
     24 H5         -0.4810   -0.0310    3.3480 ha        1 Z16      0.171000
     25 H1'         1.6470   -0.5820   -2.1250 h1        1 Z16      0.081700
     26 H2'         2.7550    2.1680   -1.1380 h1        1 Z16      0.062700
     27 HO2'        0.4110    1.7280   -1.7840 ho        1 Z16      0.426000
     28 H3'         2.7440    0.9750   -4.0210 h1        1 Z16      0.064700
     29 HO3'        2.7520    3.2840   -3.6700 ho        1 Z16      0.428000
     30 H4'         5.1640    1.3960   -2.0900 h1        1 Z16      0.060700
     31 HO4'        5.4330    1.5010   -4.4210 ho        1 Z16      0.426000
     32 H5'         3.7620   -1.2320   -3.0620 h1        1 Z16      0.073700
     33 H6'         6.0440   -0.7500   -0.9890 h1        1 Z16      0.063700
     34 H6'A        6.2900   -1.3570   -2.7120 h1        1 Z16      0.063700
     35 HO6'        4.6800   -2.6380   -0.7700 ho        1 Z16      0.409000
@<TRIPOS>BOND
     1    1    2 1   
     2    1    3 ar  
     3    1    8 ar  
     4    2   21 1   
     5    3    4 ar  
     6    3   10 1   
     7    4    5 ar  
     8    4   22 1   
     9    5    6 1   
    10    5    7 ar  
    11    6   23 1   
    12    7    8 ar  
    13    7   24 1   
    14    8    9 1   
    15   10   11 1   
    16   10   18 1   
    17   10   25 1   
    18   11   12 1   
    19   11   13 1   
    20   11   26 1   
    21   12   27 1   
    22   13   14 1   
    23   13   15 1   
    24   13   28 1   
    25   14   29 1   
    26   15   16 1   
    27   15   17 1   
    28   15   30 1   
    29   16   31 1   
    30   17   18 1   
    31   17   19 1   
    32   17   32 1   
    33   19   20 1   
    34   19   33 1   
    35   19   34 1   
    36   20   35 1   
@<TRIPOS>SUBSTRUCTURE
     1 Z16         1 TEMP              0 ****  ****    0 ROOT
