@<TRIPOS>MOLECULE
Z17
   33    34     1     0     0
SMALL
bcc


@<TRIPOS>ATOM
      1 C1           0.0000     0.0000     0.0000 c3         1 Z17      -0.138400
      2 C2          -0.5020     1.2870     0.6010 c          1 Z17       0.973600
      3 C3           3.4270    -1.3960    -0.9310 c          1 Z17       0.481000
      4 N2           5.6040    -3.9670    -2.5030 ns         1 Z17      -0.001400
      5 C5           2.0320    -1.2300    -0.7110 cc         1 Z17       0.406300
      6 C6           2.0400     0.0000     1.4430 c3         1 Z17       0.025900
      7 O1           4.2240    -0.5540    -0.5510 o          1 Z17      -0.485100
      8 N3           1.1870    -2.1310    -1.1170 nd         1 Z17      -0.477400
      9 O2           0.2830     2.1190     0.9900 o          1 Z17      -0.862800
     10 C7           4.6240    -4.8340    -2.8800 cc         1 Z17       0.029800
     11 N4           3.3480    -4.6150    -2.6490 nd         1 Z17      -0.452300
     12 O4          -1.8220     1.5090     0.7050 o          1 Z17      -0.862800
     13 C8           2.9270    -3.5150    -2.0210 cd         1 Z17       0.161600
     14 C9           3.8720    -2.5640    -1.5960 cc         1 Z17      -0.362400
     15 N5           1.6020    -3.2890    -1.7810 na         1 Z17       0.105500
     16 C10          5.2870    -2.8190    -1.8600 c          1 Z17       0.624700
     17 C11          1.5300     0.0000     0.0000 c3         1 Z17      -0.063000
     18 H1          -0.3610    -0.0890    -1.0170 hc         1 Z17       0.017200
     19 H2          -0.3610    -0.8370     0.5860 hc         1 Z17       0.017200
     20 H3           5.5970    -6.5170    -2.9450 hn         1 Z17       0.214800
     21 H4           5.4500    -5.7530    -4.3820 hn         1 Z17       0.214800
     22 H5           6.5620    -4.1800    -2.7020 hn         1 Z17       0.178500
     23 H6           0.6760    -4.4040    -3.2910 h1         1 Z17       0.029033
     24 H7          -0.3850    -3.9210    -1.9600 h1         1 Z17       0.029033
     25 H8           0.7940    -5.2190    -1.7250 h1         1 Z17       0.029033
     26 H9           2.6020    -0.9070     1.6270 hc         1 Z17       0.011033
     27 H10          1.1990     0.0480     2.1230 hc         1 Z17       0.011033
     28 H11          2.6810     0.8600     1.6000 hc         1 Z17       0.011033
     29 H14          1.8910     0.8850    -0.5110 hc         1 Z17       0.075700
     30 N1           4.9830    -5.9830    -3.5280 nz         1 Z17       0.209400
     31 C4           0.6070    -4.2720    -2.2180 c3         1 Z17       0.194100
     32 O3           6.1470    -2.0280    -1.5150 o          1 Z17      -0.558500
     33 H13          4.1640    -6.5220    -3.7300 hn         1 Z17       0.214800
@<TRIPOS>BOND
     1     1     2 1   
     2     1    17 1   
     3     1    18 1   
     4     1    19 1   
     5     2     9 1   
     6     2    12 1   
     7     3     5 1   
     8     3     7 2   
     9     3    14 1   
    10     4    10 1   
    11     4    16 1   
    12     4    22 1   
    13     5     8 2   
    14     5    17 1   
    15     6    17 1   
    16     6    26 1   
    17     6    27 1   
    18     6    28 1   
    19     8    15 1   
    20    10    11 2   
    21    10    30 1   
    22    11    13 1   
    23    13    14 2   
    24    13    15 1   
    25    14    16 1   
    26    15    31 1   
    27    16    32 2   
    28    17    29 1   
    29    20    30 1   
    30    21    30 1   
    31    23    31 1   
    32    24    31 1   
    33    25    31 1   
    34    30    33 1   
@<TRIPOS>SUBSTRUCTURE
     1 Z17         1 TEMP              0 ****  ****    0 ROOT
