@<TRIPOS>MOLECULE
molecule
   62    62     1     0     0
SMALL
bcc


@<TRIPOS>ATOM
      1 N            0.0000     0.0000     0.0000 n3         1 Z18      -0.714600
      2 C1           7.3110    -0.6410    -1.1590 ce         1 Z18      -0.233200
      3 O1           5.3800    -2.3910    -1.3730 os         1 Z18      -0.418900
      4 C2           7.5280    -1.3270    -0.0390 c2         1 Z18      -0.088200
      5 O2           3.8610    -3.9530    -1.7190 o          1 Z18      -0.544000
      6 C3           7.3890    -2.8290    -0.0590 c3         1 Z18      -0.047500
      7 O3           3.2910    -0.2900    -1.6410 os         1 Z18      -0.424900
      8 C4           7.8540    -3.4050     1.2770 c3         1 Z18      -0.088100
      9 O4           1.1860    -0.4060    -2.3040 o          1 Z18      -0.532000
     10 C5           5.9180    -3.1930    -0.2860 c3         1 Z18       0.153100
     11 O5           7.9890     1.4310    -0.3400 o          1 Z18      -0.538100
     12 C6           5.1290    -2.9170     0.9940 c3         1 Z18      -0.105400
     13 C7           3.6860    -3.3940     0.8160 c3         1 Z18      -0.095100
     14 C8           4.3440    -2.8890    -2.0550 c          1 Z18       0.640100
     15 C9           3.8460    -2.0290    -3.2400 c3         1 Z18      -0.128700
     16 C10          4.6400    -2.3590    -4.5010 c3         1 Z18      -0.085100
     17 C11          3.7040    -0.5320    -3.0150 c3         1 Z18       0.171100
     18 C12          1.9720    -0.2460    -1.4000 c          1 Z18       0.624100
     19 C13          1.4700     0.0000     0.0000 c3         1 Z18       0.119800
     20 C14         -0.5270     0.0000     1.3710 c3         1 Z18       0.150600
     21 C15         -0.5260     1.1390    -0.7660 c3         1 Z18       0.150600
     22 C16          4.9660     0.2580    -3.3390 c3         1 Z18      -0.074700
     23 C17          4.8000     0.9250    -4.7140 c3         1 Z18      -0.095100
     24 C18          5.1800     1.3670    -2.3040 c3         1 Z18      -0.072400
     25 C19          6.6460     1.8140    -2.3120 c3         1 Z18      -0.146700
     26 C20          6.8070     3.2700    -1.8780 c3         1 Z18      -0.076100
     27 C21          7.4030     0.8150    -1.1990 c          1 Z18       0.543300
     28 H1           7.0400    -1.1740    -2.0620 ha         1 Z18       0.146000
     29 H2           7.7810    -0.8100     0.8780 ha         1 Z18       0.145000
     30 H3           7.9920    -3.2380    -0.8610 hc         1 Z18       0.067700
     31 H4           8.9350    -3.3640     1.3310 hc         1 Z18       0.043367
     32 H4A          7.5270    -4.4340     1.3600 hc         1 Z18       0.043367
     33 H4B          7.4300    -2.8250     2.0880 hc         1 Z18       0.043367
     34 H5           5.8410    -4.2430    -0.5400 h1         1 Z18       0.071700
     35 H6           5.1350    -1.8540     1.2000 hc         1 Z18       0.053700
     36 H6A          5.5840    -3.4480     1.8210 hc         1 Z18       0.053700
     37 H7           3.1810    -3.3850     1.7740 hc         1 Z18       0.041367
     38 H7A          3.1690    -2.7330     0.1300 hc         1 Z18       0.041367
     39 H7B          3.6850    -4.4010     0.4170 hc         1 Z18       0.041367
     40 H9           2.8490    -2.4310    -3.3720 hc         1 Z18       0.088700
     41 H10          5.6960    -2.3960    -4.2630 hc         1 Z18       0.049367
     42 H10A         4.3230    -3.3210    -4.8850 hc         1 Z18       0.049367
     43 H10B         4.4640    -1.5960    -5.2490 hc         1 Z18       0.049367
     44 H11          2.9150    -0.1740    -3.6650 h1         1 Z18       0.078700
     45 H13          1.8310    -0.7830     0.6560 h1         1 Z18       0.064200
     46 H13A         1.8310     0.9600     0.3490 h1         1 Z18       0.064200
     47 H14         -1.6100    -0.0010     1.3410 h1         1 Z18       0.037367
     48 H14A        -0.1790    -0.8840     1.8910 h1         1 Z18       0.037367
     49 H14B        -0.1800     0.8850     1.8910 h1         1 Z18       0.037367
     50 H15         -1.4390     1.4940    -0.3040 h1         1 Z18       0.037367
     51 H15A         0.2080     1.9360    -0.7780 h1         1 Z18       0.037367
     52 H15B        -0.7340     0.8250    -1.7820 h1         1 Z18       0.037367
     53 H16          5.8230    -0.4050    -3.3520 hc         1 Z18       0.069700
     54 H17          4.1850     1.8120    -4.6130 hc         1 Z18       0.040033
     55 H17A         4.3250     0.2320    -5.3970 hc         1 Z18       0.040033
     56 H17B         5.7730     1.2030    -5.1000 hc         1 Z18       0.040033
     57 H18          4.5460     2.2120    -2.5460 hc         1 Z18       0.059200
     58 H18A         4.9230     0.9950    -1.3190 hc         1 Z18       0.059200
     59 H19          7.0840     1.6710    -3.2930 hc         1 Z18       0.059700
     60 H20          6.2950     3.4240    -0.9360 hc         1 Z18       0.042367
     61 H20A         6.3820     3.9210    -2.6320 hc         1 Z18       0.042367
     62 H20B         7.8600     3.4960    -1.7570 hc         1 Z18       0.042367
@<TRIPOS>BOND
     1     1    19 1
     2     1    20 1
     3     1    21 1
     4     2     4 2
     5     2    27 1
     6     3    10 1
     7     3    14 1
     8     4     6 1
     9     5    14 2
    10     6     8 1
    11     6    10 1
    12     7    17 1
    13     7    18 1
    14     9    18 2
    15    10    12 1
    16    11    27 2
    17    12    13 1
    18    14    15 1
    19    15    16 1
    20    15    17 1
    21    17    22 1
    22    18    19 1
    23    22    23 1
    24    22    24 1
    25    24    25 1
    26    25    26 1
    27    25    27 1
    28     2    28 1
    29     4    29 1
    30     6    30 1
    31     8    31 1
    32     8    32 1
    33     8    33 1
    34    10    34 1
    35    12    35 1
    36    12    36 1
    37    13    37 1
    38    13    38 1
    39    13    39 1
    40    15    40 1
    41    16    41 1
    42    16    42 1
    43    16    43 1
    44    17    44 1
    45    19    45 1
    46    19    46 1
    47    20    47 1
    48    20    48 1
    49    20    49 1
    50    21    50 1
    51    21    51 1
    52    21    52 1
    53    22    53 1
    54    23    54 1
    55    23    55 1
    56    23    56 1
    57    24    57 1
    58    24    58 1
    59    25    59 1
    60    26    60 1
    61    26    61 1
    62    26    62 1
@<TRIPOS>SUBSTRUCTURE
     1 Z18         1 TEMP              0 ****  ****    0 ROOT
