@<TRIPOS>MOLECULE
Z18
   62    64     1     0     0
SMALL
bcc


@<TRIPOS>ATOM
      1 N            0.0000     0.0000     0.0000 n3         1 Z18      -0.047000
      2 C1           7.3110    -0.6410    -1.1590 c2         1 Z18      -0.072000
      3 O1           5.3800    -2.3910    -1.3730 os         1 Z18      -0.232000
      4 C2           7.5280    -1.3270    -0.0390 c2         1 Z18      -0.134000
      5 O2           3.8610    -3.9530    -1.7190 o          1 Z18      -0.389000
      6 C3           7.3890    -2.8290    -0.0590 DU         1 Z18       0.026000
      7 O3           3.2910    -0.2900    -1.6410 os         1 Z18      -0.247000
      8 C4           7.8540    -3.4050     1.2770 c3         1 Z18      -0.129000
      9 O4           1.1860    -0.4060    -2.3040 o          1 Z18      -0.376000
     10 C5           5.9180    -3.1930    -0.2860 c3         1 Z18       0.040000
     11 O5           7.9890     1.4310    -0.3400 o          1 Z18      -0.380000
     12 C6           5.1290    -2.9170     0.9940 c3         1 Z18      -0.140000
     13 C7           3.6860    -3.3940     0.8160 c3         1 Z18      -0.133000
     14 C8           4.3440    -2.8890    -2.0550 c2         1 Z18       0.375000
     15 C9           3.8460    -2.0290    -3.2400 c3         1 Z18      -0.111000
     16 C10          4.6400    -2.3590    -4.5010 c3         1 Z18      -0.105000
     17 C11          3.7040    -0.5320    -3.0150 c3         1 Z18       0.088000
     18 C12          1.9720    -0.2460    -1.4000 c2         1 Z18       0.354000
     19 C13          1.4700     0.0000     0.0000 c3         1 Z18      -0.078000
     20 C14         -0.5270     0.0000     1.3710 c3         1 Z18      -0.099000
     21 C15         -0.5260     1.1390    -0.7660 c3         1 Z18      -0.099000
     22 C16          4.9660     0.2580    -3.3390 c3         1 Z18      -0.112000
     23 C17          4.8000     0.9250    -4.7140 c3         1 Z18      -0.125000
     24 C18          5.1800     1.3670    -2.3040 c3         1 Z18      -0.125000
     25 C19          6.6460     1.8140    -2.3120 c3         1 Z18      -0.101000
     26 C20          6.8070     3.2700    -1.8780 c3         1 Z18      -0.112000
     27 C21          7.4030     0.8150    -1.1990 c3         1 Z18       0.323000
     28 H1           6.6020     0.0390    -0.7020 DU         1 Z18       0.048000
     29 H2           8.3010    -1.9990    -0.3900 DU         1 Z18       0.063000
     30 H3           7.9920    -3.2380    -0.8610 ha         1 Z18       0.076000
     31 H4           7.5090    -2.7700     2.0840 hc         1 Z18       0.057667
     32 H4A          7.4470    -4.4010     1.4020 hc         1 Z18       0.057667
     33 H4B          8.9360    -3.4520     1.2930 hc         1 Z18       0.057667
     34 H5           5.8410    -4.2430    -0.5400 h1         1 Z18       0.081000
     35 H6           5.1350    -1.8540     1.2010 hc         1 Z18       0.070000
     36 H6A          5.5840    -3.4480     1.8210 hc         1 Z18       0.070000
     37 H7           3.6850    -4.4120     0.4460 hc         1 Z18       0.052667
     38 H7A          3.1720    -3.3550     1.7690 hc         1 Z18       0.052667
     39 H7B          3.1780    -2.7520     0.1060 hc         1 Z18       0.052667
     40 H9           2.8490    -2.4310    -3.3720 hc         1 Z18       0.097000
     41 H10          4.2740    -1.7590    -5.3250 hc         1 Z18       0.055000
     42 H10A         4.5200    -3.4090    -4.7380 hc         1 Z18       0.055000
     43 H10B         5.6880    -2.1440    -4.3340 hc         1 Z18       0.055000
     44 H11          2.9150    -0.1740    -3.6650 h1         1 Z18       0.092000
     45 H13          1.8310     0.9600     0.3500 h1         1 Z18       0.071000
     46 H13A         1.8310    -0.7820     0.6560 h1         1 Z18       0.071000
     47 H14         -1.6090    -0.0120     1.3410 h1         1 Z18       0.045167
     48 H14A        -0.1700    -0.8780     1.8950 h1         1 Z18       0.045167
     49 H14B        -0.1890     0.8910     1.8870 h1         1 Z18       0.045167
     50 H15         -0.7370     0.8240    -1.7810 h1         1 Z18       0.045167
     51 H15A         0.2090     1.9350    -0.7800 h1         1 Z18       0.045167
     52 H15B        -1.4370     1.4960    -0.3020 h1         1 Z18       0.045167
     53 H16          5.8230    -0.4050    -3.3520 hc         1 Z18       0.096000
     54 H17          3.7890     0.7690    -5.0720 hc         1 Z18       0.050333
     55 H17A         4.9910     1.9880    -4.6240 hc         1 Z18       0.050333
     56 H17B         5.5030     0.4900    -5.4140 hc         1 Z18       0.050333
     57 H18          4.5460     2.2120    -2.5460 hc         1 Z18       0.075500
     58 H18A         4.9220     0.9960    -1.3190 hc         1 Z18       0.075500
     59 H19          7.0840     1.6710    -3.2930 hc         1 Z18       0.079000
     60 H20          7.7730     3.4000    -1.4050 hc         1 Z18       0.054000
     61 H20A         6.0240     3.5250    -1.1750 hc         1 Z18       0.054000
     62 H20B         6.7390     3.9150    -2.7450 hc         1 Z18       0.054000
@<TRIPOS>BOND
     1     1    19 1   
     2     1    20 1   
     3     1    21 1   
     4     2     4 1   
     5     2    27 1   
     6     2    28 1   
     7     3    10 1   
     8     3    14 1   
     9     4     6 1   
    10     4    29 1   
    11     5    14 1   
    12     6     8 1   
    13     6    10 1   
    14     6    29 1   
    15     6    30 1   
    16     7    17 1   
    17     7    18 1   
    18     8    31 1   
    19     8    32 1   
    20     8    33 1   
    21     9    18 1   
    22    10    12 1   
    23    10    34 1   
    24    11    27 1   
    25    12    13 1   
    26    12    35 1   
    27    12    36 1   
    28    13    37 1   
    29    13    38 1   
    30    13    39 1   
    31    14    15 1   
    32    15    16 1   
    33    15    17 1   
    34    15    40 1   
    35    16    41 1   
    36    16    42 1   
    37    16    43 1   
    38    17    22 1   
    39    17    44 1   
    40    18    19 1   
    41    19    45 1   
    42    19    46 1   
    43    20    47 1   
    44    20    48 1   
    45    20    49 1   
    46    21    50 1   
    47    21    51 1   
    48    21    52 1   
    49    22    23 1   
    50    22    24 1   
    51    22    53 1   
    52    23    54 1   
    53    23    55 1   
    54    23    56 1   
    55    24    25 1   
    56    24    57 1   
    57    24    58 1   
    58    25    26 1   
    59    25    27 1   
    60    25    59 1   
    61    26    60 1   
    62    26    61 1   
    63    26    62 1   
    64    27    28 1   
@<TRIPOS>SUBSTRUCTURE
     1 Z18         1 TEMP              0 ****  ****    0 ROOT
