@<TRIPOS>MOLECULE
Z19
   23    23     1     0     0
SMALL
bcc


@<TRIPOS>ATOM
      1 N1        338.4450    0.2620  255.0530 nc        1 Z19     -0.187700
      2 N2        337.2440    0.2600  254.5890 na        1 Z19      0.128600
      3 C3        337.1900    0.2580  253.1650 ca        1 Z19     -0.110200
      4 C4        338.5620    0.2590  252.7130 ca        1 Z19     -0.034800
      5 C5        339.3310    0.2620  253.9600 cc        1 Z19     -0.169700
      6 C6        340.6890    0.2630  254.0890 c1        1 Z19      0.790600
      7 N7       -772.5830   -1.0040 -571.2410 n3        1 Z19     -0.673600
      8 N8       -773.5530   -0.2560 -571.8990 n4        1 Z19     -0.609400
      9 O9        341.8490    0.2650  254.1620 o         1 Z19     -0.162500
     10 C10       336.1180    0.2560  252.2670 ca        1 Z19     -0.068000
     11 C11       336.4370    0.2540  250.9130 ca        1 Z19     -0.092000
     12 C12       337.7690    0.2560  250.4650 ca        1 Z19     -0.066000
     13 C13       338.8440    0.2580  251.3530 ca        1 Z19     -0.099000
     14 HN2       336.4510    0.2600  255.2120 hn        1 Z19      0.378700
     15 HN7      -772.5000   -0.7180 -570.2700 hn        1 Z19      0.429800
     16 HN8      -773.2610    0.7390 -571.8660 hn        1 Z19      0.474800
     17 HN8A     -774.5130   -0.3350 -571.5210 hn        1 Z19      0.474800
     18 H10       335.0720    0.2550  252.6110 ha        1 Z19      0.176000
     19 H11       335.6200    0.2520  250.1690 ha        1 Z19      0.178000
     20 H12       337.9680    0.2550  249.3790 ha        1 Z19      0.175000
     21 H13       339.8790    0.2590  250.9790 ha        1 Z19      0.164000
     22 H72      -772.7950   -1.9960 -571.2890 hn        1 Z19      0.429800
     23 H83      -773.5590   -0.5500 -572.8940 hn        1 Z19      0.474800
@<TRIPOS>BOND
     1    1    2 2   
     2    1    5 1   
     3    2    3 1   
     4    2   14 1   
     5    3    4 ar  
     6    3   10 ar  
     7    4    5 1   
     8    4   13 ar  
     9    5    6 2   
    10    6    9 2   
    11    7    8 1   
    12    7   15 1   
    13    7   22 1   
    14    8   16 1   
    15    8   17 1   
    16    8   23 1   
    17   10   11 ar  
    18   10   18 1   
    19   11   12 ar  
    20   11   19 1   
    21   12   13 ar  
    22   12   20 1   
    23   13   21 1   
@<TRIPOS>SUBSTRUCTURE
     1 Z19         1 TEMP              0 ****  ****    0 ROOT
