@<TRIPOS>MOLECULE
Z20
   35    37     1     0     0
SMALL
bcc


@<TRIPOS>ATOM
      1 O24        -0.4480    1.0040   -0.3020 o         1 Z20     -0.197000
      2 N22         0.6900    0.7720    0.0160 no        1 Z20      0.326200
      3 O23         1.0600    0.8240    1.1550 o         1 Z20     -0.197000
      4 C18         1.6560    0.4100   -1.0500 ca        1 Z20     -0.221200
      5 C17         3.0120    0.1320   -0.7480 ca        1 Z20      0.209100
      6 O25         3.4090    0.2030    0.5540 oh        1 Z20     -0.443100
      7 C16         3.8960   -0.2030   -1.7900 ca        1 Z20     -0.234000
      8 C15         3.4430   -0.2700   -3.0980 ca        1 Z20     -0.027000
      9 C19         1.2150    0.3450   -2.3800 ca        1 Z20     -0.008000
     10 C14         2.0990   -0.0020   -3.4110 ca        1 Z20     -0.127800
     11 C13         1.5850   -0.0550   -4.7640 ce        1 Z20      0.007800
     12 C11         2.1510   -0.6560   -5.8250 cd        1 Z20     -0.128600
     13 C10         1.4800   -0.6110   -7.1590 c         1 Z20      0.709700
     14 O21         0.4100   -0.0490   -7.4210 o         1 Z20     -0.576500
     15 N9          2.2140   -1.3030   -8.1330 n         1 Z20     -0.493400
     16 S12         3.5970   -1.5520   -5.9350 ss        1 Z20     -0.178800
     17 C8          3.4230   -1.8670   -7.6840 cc        1 Z20      0.533800
     18 N7          4.2320   -2.4880   -8.4850 nf        1 Z20     -0.599100
     19 C2          5.4380   -3.0750   -8.0760 ca        1 Z20      0.155400
     20 C3          6.4930   -3.1670   -9.0220 ca        1 Z20      0.040400
     21 CL1         6.3380   -2.5050  -10.5770 cl        1 Z20     -0.067400
     22 C4          7.6910   -3.8030   -8.6870 ca        1 Z20     -0.121000
     23 C5          7.8660   -4.3560   -7.4200 ca        1 Z20     -0.122000
     24 C6          6.8400   -4.2760   -6.4810 ca        1 Z20     -0.118000
     25 C1          5.6440   -3.6430   -6.7990 ca        1 Z20     -0.155000
     26 H1          4.3570   -0.0070    0.5990 ho        1 Z20      0.433000
     27 H2          4.9510   -0.4120   -1.5570 ha        1 Z20      0.153000
     28 H3          4.1610   -0.5190   -3.9010 ha        1 Z20      0.158000
     29 H4          0.1550    0.5680   -2.6100 ha        1 Z20      0.181000
     30 H5          0.6090    0.4530   -4.9220 ha        1 Z20      0.167000
     31 H10         8.5010   -3.8670   -9.4310 ha        1 Z20      0.151000
     32 H11         8.8120   -4.8560   -7.1670 ha        1 Z20      0.141000
     33 H12         6.9730   -4.7160   -5.4810 ha        1 Z20      0.138000
     34 H13         4.8380   -3.6110   -6.0440 ha        1 Z20      0.145000
     35 H14         1.9200   -1.3550   -9.0810 hn        1 Z20      0.364500
@<TRIPOS>BOND
     1    1    2 1   
     2    2    3 1   
     3    2    4 1   
     4    4    5 ar  
     5    4    9 ar  
     6    5    6 1   
     7    5    7 ar  
     8    6   26 1   
     9    7    8 ar  
    10    7   27 1   
    11    8   10 ar  
    12    8   28 1   
    13    9   10 ar  
    14    9   29 1   
    15   10   11 1   
    16   11   12 2   
    17   11   30 1   
    18   12   13 1   
    19   12   16 1   
    20   13   14 2   
    21   13   15 1   
    22   15   17 1   
    23   15   35 1   
    24   16   17 1   
    25   17   18 2   
    26   18   19 1   
    27   19   20 ar  
    28   19   25 ar  
    29   20   21 1   
    30   20   22 ar  
    31   22   23 ar  
    32   22   31 1   
    33   23   24 ar  
    34   23   32 1   
    35   24   25 ar  
    36   24   33 1   
    37   25   34 1   
@<TRIPOS>SUBSTRUCTURE
     1 Z20         1 TEMP              0 ****  ****    0 ROOT
