@<TRIPOS>MOLECULE
Z21
   28    30     1     0     0
SMALL
bcc


@<TRIPOS>ATOM
      1 BR          0.0890    0.1220   -0.1640 br        1 Z21     -0.082200
      2 C           1.9680    0.0810   -0.0650 ca        1 Z21      0.483500
      3 C1          2.5780    0.0570    1.1910 ca        1 Z21     -0.210300
      4 C2          3.9860    0.0240    1.1990 ca        1 Z21     -0.031200
      5 N2          4.9380    0.0080    2.2190 na        1 Z21     -0.080300
      6 C6          4.6520   -0.0390    3.6330 c3        1 Z21      0.026300
      7 C7          4.6900   -1.4270    4.2510 c3        1 Z21     -0.120100
      8 C5          6.1900   -0.0250    1.5670 cc        1 Z21      0.292800
      9 N1          6.0830   -0.0100    0.2020 nd        1 Z21     -0.605100
     10 C3          4.7220    0.0190   -0.0580 ca        1 Z21     -0.047900
     11 C4          3.9670    0.0470   -1.2680 ca        1 Z21      0.481200
     12 N           2.6430    0.0760   -1.2610 nb        1 Z21     -0.628000
     13 C8          7.4810   -0.0520    2.2150 cc        1 Z21      0.296700
     14 C9          8.7850   -0.0430    1.4860 cc        1 Z21      0.245900
     15 N5          8.9510   -0.0070    0.0550 n4        1 Z21     -0.774300
     16 N4          9.7590   -0.0760    2.4380 nd        1 Z21     -0.231300
     17 O           9.1480   -0.1020    3.5960 os        1 Z21      0.201600
     18 N3          7.8090   -0.0910    3.5200 nd        1 Z21     -0.282300
     19 H1          1.9940    0.0620    2.1230 ha        1 Z21      0.177000
     20 H61C        3.6160    0.3950    3.7690 h1        1 Z21      0.084700
     21 H62C        5.3780    0.6390    4.1660 h1        1 Z21      0.084700
     22 H71C        3.9430   -2.1060    3.7750 hc        1 Z21      0.063033
     23 H72C        5.7010   -1.8920    4.1630 hc        1 Z21      0.063033
     24 H73C        4.4400   -1.3280    5.3370 hc        1 Z21      0.063033
     25 H4          4.4640    0.0460   -2.2550 h4        1 Z21      0.050100
     26 H51N        8.4900    0.8430   -0.3110 hn        1 Z21      0.493133
     27 H52N        8.4860   -0.8360   -0.3530 hn        1 Z21      0.493133
     28 H53         9.9470   -0.0030   -0.2060 hn        1 Z21      0.493133
@<TRIPOS>BOND
     1    1    2 1   
     2    2    3 ar  
     3    2   12 ar  
     4    3    4 ar  
     5    3   19 1   
     6    4    5 1   
     7    4   10 ar  
     8    5    6 1   
     9    5    8 1   
    10    6    7 1   
    11    6   20 1   
    12    6   21 1   
    13    7   22 1   
    14    7   23 1   
    15    7   24 1   
    16    8    9 2   
    17    8   13 1   
    18    9   10 1   
    19   10   11 ar  
    20   11   12 ar  
    21   11   25 1   
    22   13   14 1   
    23   13   18 2   
    24   14   15 1   
    25   14   16 2   
    26   15   26 1   
    27   15   27 1   
    28   15   28 1   
    29   16   17 1   
    30   17   18 1   
@<TRIPOS>SUBSTRUCTURE
     1 Z21         1 TEMP              0 ****  ****    0 ROOT
