@<TRIPOS>MOLECULE
Z22
   12    11     1     0     0
SMALL
bcc


@<TRIPOS>ATOM
      1 S           0.3640   -1.0290    1.2630 ss        1 Z22     -0.539000
      2 S2          2.2250   -0.1680    0.3650 s6        1 Z22      1.328700
      3 C          -0.7790    0.2160    1.8090 c3        1 Z22      0.101000
      4 O1          1.9180    0.5150   -0.8060 o         1 Z22     -0.580800
      5 O2          2.9470    0.5220    1.3330 o         1 Z22     -0.580800
      6 C2          2.8000   -1.7010    0.0930 c3        1 Z22     -0.383300
      7 H          -1.6500   -0.3340    2.2290 h1        1 Z22      0.067033
      8 H2          2.1050   -2.5260    0.4300 h1        1 Z22      0.151700
      9 H3          2.9850   -1.9090   -0.9950 h1        1 Z22      0.151700
     10 H4          3.7660   -1.9040    0.6290 h1        1 Z22      0.151700
     11 HA         -1.1060    0.8410    0.9510 h1        1 Z22      0.067033
     12 HB         -0.3150    0.8460    2.5970 h1        1 Z22      0.067033
@<TRIPOS>BOND
     1    1    2 1   
     2    1    3 1   
     3    2    4 2   
     4    2    5 2   
     5    2    6 1   
     6    3    7 1   
     7    3   11 1   
     8    3   12 1   
     9    6    8 1   
    10    6    9 1   
    11    6   10 1   
@<TRIPOS>SUBSTRUCTURE
     1 Z22         1 TEMP              0 ****  ****    0 ROOT
