@<TRIPOS>MOLECULE
molecule
   12    11     1     0     0
SMALL
bcc


@<TRIPOS>ATOM
      1 S            0.0000     0.0000     0.0000 ss         1 Z22      -0.489000
      2 S2           2.0500     0.0000     0.0000 s6         1 Z22       1.126700
      3 C           -0.4070     0.0000     1.7670 c3         1 Z22       0.096000
      4 O1           2.4010     0.2650    -1.3510 o          1 Z22      -0.534800
      5 O2           2.4010     0.9050     1.0380 o          1 Z22      -0.534800
      6 C2           2.5030    -1.6970     0.4540 c3         1 Z22      -0.208300
      7 H            0.0520     0.8580     2.2440 h1         1 Z22       0.071700
      8 H2           2.5540    -1.7800     1.5330 h1         1 Z22       0.110033
      9 H3           1.7560    -2.3830     0.0730 h1         1 Z22       0.110033
     10 H4           3.4680    -1.9390     0.0270 h1         1 Z22       0.110033
     11 HA          -0.0350    -0.9090     2.2240 h1         1 Z22       0.071700
     12 HB          -1.4830     0.0510     1.8900 h1         1 Z22       0.071700
@<TRIPOS>BOND
     1     1     2 1
     2     1     3 1
     3     2     4 2
     4     2     5 2
     5     2     6 1
     6     3     7 1
     7     6     8 1
     8     6     9 1
     9     6    10 1
    10     3    11 1
    11     3    12 1
@<TRIPOS>SUBSTRUCTURE
     1 Z22         1 TEMP              0 ****  ****    0 ROOT
