@<TRIPOS>MOLECULE
Z23
   50    52     1     0     0
SMALL
bcc


@<TRIPOS>ATOM
      1 C1           0.0000     0.0000     0.0000 ca         1 Z23      -0.029000
      2 C2           1.3960     0.0000     0.0000 ca         1 Z23      -0.233400
      3 C3           2.0880     0.0000     1.2100 ca         1 Z23      -0.111000
      4 C4           1.3870    -0.0110     2.4050 ca         1 Z23       0.154600
      5 C5          -0.0020    -0.0120     2.3940 ca         1 Z23       0.033000
      6 C6          -0.6890    -0.0060     1.1950 ca         1 Z23      -0.015500
      7 O7           2.0570    -0.0170     3.5870 os         1 Z23      -0.275900
      8 C8           1.1290     0.1390     4.5650 ca         1 Z23       0.489600
      9 N9           0.5070     1.3000     4.6960 nb         1 Z23      -0.628000
     10 C10         -0.4040     1.4960     5.6360 ca         1 Z23       0.489600
     11 C11          0.8490    -0.9170     5.4210 ca         1 Z23       0.056600
     12 C12         -0.1050    -0.7500     6.4150 ca         1 Z23      -0.056300
     13 C13         -0.7380     0.4800     6.5230 ca         1 Z23       0.056600
     14 O14         -1.0180     2.7030     5.7350 os         1 Z23      -0.275900
     15 C15         -0.1570     3.5290     6.3860 ca         1 Z23       0.154600
     16 C16         -0.6320     4.6830     6.9960 ca         1 Z23       0.033000
     17 C17          0.2390     5.5270     7.6600 ca         1 Z23      -0.015500
     18 C18          1.5860     5.2280     7.7210 ca         1 Z23      -0.029000
     19 C19          2.0700     4.0710     7.1110 ca         1 Z23      -0.233400
     20 C20          1.1910     3.2170     6.4460 ca         1 Z23      -0.111000
     21 C21          3.5130     3.7470     7.1750 ce         1 Z23       0.037800
     22 N22          4.3510     4.5610     7.8140 nz         1 Z23       0.153400
     23 C23          2.1370     0.0050    -1.2810 ce         1 Z23       0.037800
     24 N24          1.4750     0.0090    -2.4340 nz         1 Z23       0.153400
     25 N25          3.4690     0.0050    -1.2780 nv         1 Z23       0.348400
     26 F26          1.4880    -2.1000     5.2810 f          1 Z23      -0.066400
     27 C27         -0.4410    -1.8750     7.3580 c3         1 Z23       0.051200
     28 F28         -1.6680     0.6880     7.4810 f          1 Z23      -0.066400
     29 N38          3.9740     2.6420     6.5920 nv         1 Z23       0.348400
     30 H29         -0.5420     0.0020    -0.9380 ha         1 Z23       0.113000
     31 H30          3.1710     0.0000     1.2160 ha         1 Z23       0.130000
     32 H31         -0.5480    -0.0190     3.3300 ha         1 Z23       0.161500
     33 H32         -1.7730    -0.0070     1.1940 ha         1 Z23       0.168500
     34 H33         -1.6870     4.9240     6.9490 ha         1 Z23       0.161500
     35 H34         -0.1360     6.4260     8.1340 ha         1 Z23       0.168500
     36 H35          2.2700     5.9090     8.2130 ha         1 Z23       0.113000
     37 H36          1.5740     2.3620     5.9020 ha         1 Z23       0.130000
     38 H39          5.2790     4.1890     7.7680 hn         1 Z23       0.264467
     39 H46          4.0710     4.6430     8.7710 hn         1 Z23       0.264467
     40 H40          0.8990    -0.8080    -2.4920 hn         1 Z23       0.264467
     41 H48          2.1270     0.0120    -3.1940 hn         1 Z23       0.264467
     42 H41          3.9680     0.0020    -0.4100 hn         1 Z23       0.163450
     43 H47          3.9720     0.0080    -2.1430 hn         1 Z23       0.163450
     44 H42         -0.7730    -1.4660     8.3050 hc         1 Z23       0.054700
     45 H43          0.4380    -2.4880     7.5180 hc         1 Z23       0.054700
     46 H44         -1.2310    -2.4810     6.9300 hc         1 Z23       0.054700
     47 H49          3.3450     2.0300     6.1120 hn         1 Z23       0.163450
     48 H50          4.9500     2.4240     6.6350 hn         1 Z23       0.163450
     49 H223         4.3320     5.4640     7.3830 hn         1 Z23       0.264467
     50 H243         0.9080     0.8320    -2.4910 hn         1 Z23       0.264467
@<TRIPOS>BOND
     1     1     2 ar  
     2     1     6 ar  
     3     1    30 1   
     4     2     3 ar  
     5     2    23 1   
     6     3     4 ar  
     7     3    31 1   
     8     4     5 ar  
     9     4     7 1   
    10     5     6 ar  
    11     5    32 1   
    12     6    33 1   
    13     7     8 1   
    14     8     9 ar  
    15     8    11 ar  
    16     9    10 ar  
    17    10    13 ar  
    18    10    14 1   
    19    11    12 ar  
    20    11    26 1   
    21    12    13 ar  
    22    12    27 1   
    23    13    28 1   
    24    14    15 1   
    25    15    16 ar  
    26    15    20 ar  
    27    16    17 ar  
    28    16    34 1   
    29    17    18 ar  
    30    17    35 1   
    31    18    19 ar  
    32    18    36 1   
    33    19    20 ar  
    34    19    21 1   
    35    20    37 1   
    36    21    22 1   
    37    21    29 2   
    38    22    38 1   
    39    22    39 1   
    40    22    49 1   
    41    23    24 1   
    42    23    25 2   
    43    24    40 1   
    44    24    41 1   
    45    24    50 1   
    46    25    42 1   
    47    25    43 1   
    48    27    44 1   
    49    27    45 1   
    50    27    46 1   
    51    29    47 1   
    52    29    48 1   
@<TRIPOS>SUBSTRUCTURE
     1 Z23         1 TEMP              0 ****  ****    0 ROOT
