@<TRIPOS>MOLECULE
molecule
   50    52     1     0     0
SMALL
bcc


@<TRIPOS>ATOM
      1 C1           0.0000     0.0000     0.0000 ca         1 Z23      -0.069000
      2 C2           1.3960     0.0000     0.0000 ca         1 Z23      -0.241400
      3 C3           2.0880     0.0000     1.2100 ca         1 Z23      -0.104000
      4 C4           1.3870    -0.0110     2.4050 ca         1 Z23       0.134100
      5 C5          -0.0020    -0.0120     2.3940 ca         1 Z23       0.002000
      6 C6          -0.6890    -0.0060     1.1950 ca         1 Z23      -0.061000
      7 O7           2.0570    -0.0170     3.5870 os         1 Z23      -0.278400
      8 C8           1.1290     0.1390     4.5650 ca         1 Z23       0.511100
      9 N9           0.5070     1.3000     4.6960 nb         1 Z23      -0.736000
     10 C10         -0.4040     1.4960     5.6360 ca         1 Z23       0.511100
     11 C11          0.8490    -0.9170     5.4210 ca         1 Z23       0.082600
     12 C12         -0.1050    -0.7500     6.4150 ca         1 Z23      -0.083300
     13 C13         -0.7380     0.4800     6.5230 ca         1 Z23       0.082600
     14 O14         -1.0180     2.7030     5.7350 os         1 Z23      -0.278400
     15 C15         -0.1570     3.5290     6.3860 ca         1 Z23       0.134100
     16 C16         -0.6320     4.6830     6.9960 ca         1 Z23       0.002000
     17 C17          0.2390     5.5270     7.6600 ca         1 Z23      -0.061000
     18 C18          1.5860     5.2280     7.7210 ca         1 Z23      -0.069000
     19 C19          2.0700     4.0710     7.1110 ca         1 Z23      -0.241400
     20 C20          1.1910     3.2170     6.4460 ca         1 Z23      -0.104000
     21 C21          3.5130     3.7470     7.1750 ce         1 Z23       0.502300
     22 N22          4.3510     4.5610     7.8140 nz         1 Z23      -0.786100
     23 C23          2.1370     0.0050    -1.2810 ce         1 Z23       0.502300
     24 N24          1.4750     0.0090    -2.4340 nz         1 Z23      -0.786100
     25 N25          3.4690     0.0050    -1.2780 nv         1 Z23      -0.351600
     26 F26          1.4880    -2.1000     5.2810 f          1 Z23      -0.060400
     27 C27         -0.4410    -1.8750     7.3580 c3         1 Z23      -0.062800
     28 F28         -1.6680     0.6880     7.4810 f          1 Z23      -0.060400
     29 N38          3.9740     2.6420     6.5920 nv         1 Z23      -0.351600
     30 H29         -0.5420     0.0020    -0.9380 ha         1 Z23       0.149500
     31 H30          3.1710     0.0000     1.2160 ha         1 Z23       0.157500
     32 H31         -0.5480    -0.0190     3.3300 ha         1 Z23       0.208000
     33 H32         -1.7730    -0.0070     1.1940 ha         1 Z23       0.216500
     34 H33         -1.6870     4.9230     6.9490 ha         1 Z23       0.208000
     35 H34         -0.1360     6.4270     8.1340 ha         1 Z23       0.216500
     36 H35          2.2600     5.8730     8.2710 ha         1 Z23       0.149500
     37 H36          1.5460     2.2720     6.0540 ha         1 Z23       0.157500
     38 H39          4.0840     4.6270     8.7760 hn         1 Z23       0.517967
     39 H46          4.3170     5.4700     7.3960 hn         1 Z23       0.517967
     40 H40          0.8990     0.8260    -2.4860 hn         1 Z23       0.517967
     41 H48          2.1270     0.0130    -3.1940 hn         1 Z23       0.517967
     42 H41          3.9720     0.0080    -2.1430 hn         1 Z23       0.364450
     43 H47          3.9680     0.0020    -0.4100 hn         1 Z23       0.364450
     44 H42         -1.1150    -2.5680     6.8680 hc         1 Z23       0.097700
     45 H43          0.4670    -2.3930     7.6410 hc         1 Z23       0.097700
     46 H44         -0.9190    -1.4740     8.2440 hc         1 Z23       0.097700
     47 H49          4.9500     2.4240     6.6350 hn         1 Z23       0.364450
     48 H50          3.3450     2.0300     6.1120 hn         1 Z23       0.364450
     49 H223         5.2820     4.2000     7.7500 hn         1 Z23       0.517967
     50 H243         0.8870    -0.7990    -2.4850 hn         1 Z23       0.517967
@<TRIPOS>BOND
     1     1     2 ar
     2     1     6 ar
     3     1    30 1
     4     2     3 ar
     5     2    23 1
     6     3     4 ar
     7     3    31 1
     8     4     5 ar
     9     4     7 1
    10     5     6 ar
    11     5    32 1
    12     6    33 1
    13     7     8 1
    14     8     9 ar
    15     8    11 ar
    16     9    10 ar
    17    10    13 ar
    18    10    14 1
    19    11    12 ar
    20    11    26 1
    21    12    13 ar
    22    12    27 1
    23    13    28 1
    24    14    15 1
    25    15    16 ar
    26    15    20 ar
    27    16    17 ar
    28    16    34 1
    29    17    18 ar
    30    17    35 1
    31    18    19 ar
    32    18    36 1
    33    19    20 ar
    34    19    21 1
    35    20    37 1
    36    21    22 1
    37    21    29 2
    38    22    38 1
    39    22    39 1
    40    23    24 1
    41    23    25 2
    42    24    40 1
    43    24    41 1
    44    25    42 1
    45    25    43 1
    46    27    44 1
    47    27    45 1
    48    27    46 1
    49    29    47 1
    50    29    48 1
    51    49    22 1
    52    50    24 1
@<TRIPOS>SUBSTRUCTURE
     1 Z23         1 TEMP              0 ****  ****    0 ROOT
