@<TRIPOS>MOLECULE
molecule
   27    28     1     0     0
SMALL
bcc


@<TRIPOS>ATOM
      1 OAB          0.0000     0.0000     0.0000 oh         1 Z24      -0.591800
      2 CAL          1.4290     0.0000     0.0000 c3         1 Z24       0.368300
      3 CAI          1.9550     0.0000     1.4510 c3         1 Z24      -0.098400
      4 CAP          2.2500     1.4990     1.7150 c3         1 Z24      -0.167700
      5 CAK          3.3180     1.6630     2.7650 c          1 Z24       0.893600
      6 OAC          3.8180     0.6880     3.2750 o          1 Z24      -0.844800
      7 OAA          3.7150     2.8900     3.1350 o          1 Z24      -0.844800
      8 CAJ          2.7580     1.9690     0.3290 c3         1 Z24       0.183800
      9 NAQ          1.9310     1.2250    -0.6510 nh         1 Z24      -0.622000
     10 CAO          2.6670     0.9220    -1.8020 ca         1 Z24       0.058600
     11 CAN          2.2550     1.4060    -3.0390 ca         1 Z24       0.175900
     12 FAE          1.1440     2.1690    -3.1320 f          1 Z24      -0.120900
     13 CAH          2.9840     1.1040    -4.1750 ca         1 Z24      -0.222000
     14 CAM          4.1230     0.3220    -4.0800 ca         1 Z24       0.133900
     15 FAD          4.8340     0.0280    -5.1910 f          1 Z24      -0.150900
     16 CAF          4.5340    -0.1600    -2.8490 ca         1 Z24      -0.182000
     17 CAG          3.8120     0.1430    -1.7100 ca         1 Z24      -0.113000
     18 HAB1        -0.3140    -0.8500    -0.2590 ho         1 Z24       0.386000
     19 HAL1         1.8020    -0.8720    -0.5240 h2         1 Z24       0.009700
     20 HAI1         1.1950    -0.3650     2.1310 hc         1 Z24       0.061700
     21 HAI2         2.8620    -0.5870     1.5280 hc         1 Z24       0.061700
     22 HAP1         1.3440     2.0260     1.9890 hc         1 Z24       0.066700
     23 HAJ2         2.6070     3.0350     0.2150 h1         1 Z24       0.053200
     24 HAJ1         3.8040     1.7140     0.2070 h1         1 Z24       0.053200
     25 HAH1         2.6640     1.4800    -5.1390 ha         1 Z24       0.148000
     26 HAF1         5.4260    -0.7690    -2.7770 ha         1 Z24       0.141000
     27 HAG1         4.1340    -0.2350    -0.7470 ha         1 Z24       0.164000
@<TRIPOS>BOND
     1     6     5 1
     2    12    11 1
     3     5     7 1
     4     5     4 1
     5     8     4 1
     6     8     9 1
     7    11    13 ar
     8    11    10 ar
     9    13    14 ar
    10     4     3 1
    11     9    10 1
    12     9     2 1
    13    10    17 ar
    14    14    15 1
    15    14    16 ar
    16     3     2 1
    17     2     1 1
    18    17    16 ar
    19     1    18 1
    20     2    19 1
    21     3    20 1
    22     3    21 1
    23     4    22 1
    24     8    23 1
    25     8    24 1
    26    13    25 1
    27    16    26 1
    28    17    27 1
@<TRIPOS>SUBSTRUCTURE
     1 Z24         1 TEMP              0 ****  ****    0 ROOT
