@<TRIPOS>MOLECULE
Z24
   27    28     1     0     0
SMALL
bcc


@<TRIPOS>ATOM
      1 OAB          0.0000     0.0000     0.0000 oh         1 Z24      -0.573800
      2 CAL          1.4290     0.0000     0.0000 c3         1 Z24       0.344300
      3 CAI          1.9550     0.0000     1.4510 c3         1 Z24      -0.058400
      4 CAP          2.2500     1.4990     1.7150 c3         1 Z24      -0.144700
      5 CAK          3.3180     1.6630     2.7650 c          1 Z24       0.982600
      6 OAC          3.8180     0.6880     3.2750 o          1 Z24      -0.894300
      7 OAA          3.7150     2.8900     3.1350 o          1 Z24      -0.894300
      8 CAJ          2.7580     1.9690     0.3290 c3         1 Z24       0.167800
      9 NAQ          1.9310     1.2250    -0.6510 nh         1 Z24      -0.415000
     10 CAO          2.6670     0.9220    -1.8020 ca         1 Z24       0.001600
     11 CAN          2.2550     1.4060    -3.0390 ca         1 Z24       0.149900
     12 FAE          1.1440     2.1690    -3.1320 f          1 Z24      -0.117900
     13 CAH          2.9840     1.1040    -4.1750 ca         1 Z24      -0.181000
     14 CAM          4.1230     0.3220    -4.0800 ca         1 Z24       0.104900
     15 FAD          4.8340     0.0280    -5.1910 f          1 Z24      -0.135900
     16 CAF          4.5340    -0.1600    -2.8490 ca         1 Z24      -0.144000
     17 CAG          3.8120     0.1430    -1.7100 ca         1 Z24      -0.083000
     18 HAB1        -0.3140    -0.8500    -0.2590 ho         1 Z24       0.370000
     19 HAL1         1.8020    -0.8720    -0.5240 h2         1 Z24      -0.019300
     20 HAI1         1.1950    -0.3650     2.1310 hc         1 Z24       0.035700
     21 HAI2         2.8620    -0.5870     1.5280 hc         1 Z24       0.035700
     22 HAP1         1.3440     2.0260     1.9890 hc         1 Z24       0.040700
     23 HAJ2         2.6070     3.0350     0.2150 h1         1 Z24       0.024200
     24 HAJ1         3.8040     1.7140     0.2070 h1         1 Z24       0.024200
     25 HAH1         2.6640     1.4800    -5.1390 ha         1 Z24       0.125000
     26 HAF1         5.4260    -0.7690    -2.7770 ha         1 Z24       0.117000
     27 HAG1         4.1340    -0.2350    -0.7470 ha         1 Z24       0.139000
@<TRIPOS>BOND
     1     1     2 1   
     2     1    18 1   
     3     2     3 1   
     4     2     9 1   
     5     2    19 1   
     6     3     4 1   
     7     3    20 1   
     8     3    21 1   
     9     4     5 1   
    10     4     8 1   
    11     4    22 1   
    12     5     6 1   
    13     5     7 1   
    14     8     9 1   
    15     8    23 1   
    16     8    24 1   
    17     9    10 1   
    18    10    11 ar  
    19    10    17 ar  
    20    11    12 1   
    21    11    13 ar  
    22    13    14 ar  
    23    13    25 1   
    24    14    15 1   
    25    14    16 ar  
    26    16    17 ar  
    27    16    26 1   
    28    17    27 1   
@<TRIPOS>SUBSTRUCTURE
     1 Z24         1 TEMP              0 ****  ****    0 ROOT
