@<TRIPOS>MOLECULE
molecule
   27    28     1     0     0
SMALL
bcc


@<TRIPOS>ATOM
      1 O3           0.0000     0.0000     0.0000 o          1 Z25      -0.835800
      2 C9           1.2080     0.0000     0.0000 c          1 Z25       0.889600
      3 O4           1.8790     0.0000     1.1620 o          1 Z25      -0.835800
      4 C8           1.9610    -0.0060    -1.3060 c3         1 Z25      -0.191400
      5 C7           0.9660    -0.0120    -2.4690 c3         1 Z25      -0.090700
      6 C5           1.7200    -0.0200    -3.7740 cc         1 Z25       0.373300
      7 C6           1.0020    -0.0200    -5.0020 c          1 Z25       0.448000
      8 O2          -0.2180    -0.0190    -5.0110 o          1 Z25      -0.458100
      9 C3           1.7350    -0.0200    -6.2120 cc         1 Z25      -0.355400
     10 C4           1.0800    -0.0200    -7.5180 c          1 Z25       0.710700
     11 O1          -0.1350    -0.0200    -7.6170 o          1 Z25      -0.516500
     12 N4           3.0200    -0.0200    -3.7680 nd         1 Z25      -0.357400
     13 N3           3.7660    -0.0250    -4.9510 na         1 Z25      -0.384100
     14 C2           3.1410    -0.0200    -6.1650 cd         1 Z25       0.379600
     15 N2           3.8300    -0.0210    -7.3080 nd         1 Z25      -0.633300
     16 C1           3.2290    -0.0220    -8.4780 cc         1 Z25       0.512800
     17 N5           3.9990    -0.0230    -9.6080 nz         1 Z25      -0.742600
     18 N1           1.8750    -0.0210    -8.6150 ns         1 Z25      -0.463400
     19 H2           2.5840     0.8780    -1.3680 hc         1 Z25       0.039700
     20 H3           2.5840    -0.8910    -1.3590 hc         1 Z25       0.039700
     21 H4           0.3430    -0.8960    -2.4060 hc         1 Z25       0.101700
     22 H5           0.3440     0.8730    -2.4160 hc         1 Z25       0.101700
     23 H7           3.7980     0.7940   -10.1490 hn         1 Z25       0.477133
     24 H8           3.7970    -0.8410   -10.1480 hn         1 Z25       0.477133
     25 H9           1.4650    -0.0220    -9.5280 hn         1 Z25       0.337500
     26 H6           4.7660    -0.0250    -4.9080 hn         1 Z25       0.497800
     27 H53          4.9670    -0.0240    -9.3520 hn         1 Z25       0.477133
@<TRIPOS>BOND
     1    17    16 1
     2    18    16 1
     3    18    10 1
     4    16    15 2
     5    11    10 2
     6    10     9 1
     7    15    14 1
     8     9    14 2
     9     9     7 1
    10    14    13 1
    11     8     7 2
    12     7     6 1
    13    13    12 1
    14     6    12 2
    15     6     5 1
    16     5     4 1
    17     1     2 1
    18     4     2 1
    19     2     3 1
    20     4    19 1
    21     4    20 1
    22     5    21 1
    23     5    22 1
    24    17    23 1
    25    17    24 1
    26    18    25 1
    27    13    26 1
    28    27    17 1
@<TRIPOS>SUBSTRUCTURE
     1 Z25         1 TEMP              0 ****  ****    0 ROOT
