@<TRIPOS>MOLECULE
Z25
   27    28     1     0     0
SMALL
bcc


@<TRIPOS>ATOM
      1 O3           0.0000     0.0000     0.0000 o          1 Z25      -0.853300
      2 C9           1.2080     0.0000     0.0000 c          1 Z25       0.970600
      3 O4           1.8790     0.0000     1.1620 o          1 Z25      -0.853300
      4 C8           1.9610    -0.0060    -1.3060 c3         1 Z25      -0.139400
      5 C7           0.9660    -0.0120    -2.4690 c3         1 Z25      -0.041700
      6 C5           1.7200    -0.0200    -3.7740 cc         1 Z25       0.399300
      7 C6           1.0020    -0.0200    -5.0020 c          1 Z25       0.481000
      8 O2          -0.2180    -0.0190    -5.0110 o          1 Z25      -0.488100
      9 C3           1.7350    -0.0200    -6.2120 cc         1 Z25      -0.367400
     10 C4           1.0800    -0.0200    -7.5180 c          1 Z25       0.625700
     11 O1          -0.1350    -0.0200    -7.6170 o          1 Z25      -0.558500
     12 N4           3.0200    -0.0200    -3.7680 nd         1 Z25      -0.490400
     13 N3           3.7660    -0.0250    -4.9510 na         1 Z25       0.082900
     14 C2           3.1410    -0.0200    -6.1650 cd         1 Z25       0.149600
     15 N2           3.8300    -0.0210    -7.3080 nd         1 Z25      -0.460300
     16 C1           3.2290    -0.0220    -8.4780 cc         1 Z25       0.029800
     17 N5           3.9990    -0.0230    -9.6080 nz         1 Z25       0.209400
     18 N1           1.8750    -0.0210    -8.6150 ns         1 Z25      -0.001400
     19 H2           2.5840     0.8780    -1.3680 hc         1 Z25       0.017200
     20 H3           2.5840    -0.8910    -1.3590 hc         1 Z25       0.017200
     21 H4           0.3430    -0.8960    -2.4060 hc         1 Z25       0.065200
     22 H5           0.3440     0.8730    -2.4160 hc         1 Z25       0.065200
     23 H7           3.7980     0.7940   -10.1490 hn         1 Z25       0.214800
     24 H8           3.7970    -0.8410   -10.1480 hn         1 Z25       0.214800
     25 H9           1.4650    -0.0220    -9.5280 hn         1 Z25       0.178500
     26 H6           4.7660    -0.0250    -4.9080 hn         1 Z25       0.316800
     27 H53          4.9670    -0.0240    -9.3520 hn         1 Z25       0.214800
@<TRIPOS>BOND
     1     1     2 1   
     2     2     3 1   
     3     2     4 1   
     4     4     5 1   
     5     4    19 1   
     6     4    20 1   
     7     5     6 1   
     8     5    21 1   
     9     5    22 1   
    10     6     7 1   
    11     6    12 2   
    12     7     8 2   
    13     7     9 1   
    14     9    10 1   
    15     9    14 2   
    16    10    11 2   
    17    10    18 1   
    18    12    13 1   
    19    13    14 1   
    20    13    26 1   
    21    14    15 1   
    22    15    16 2   
    23    16    17 1   
    24    16    18 1   
    25    17    23 1   
    26    17    24 1   
    27    17    27 1   
    28    18    25 1   
@<TRIPOS>SUBSTRUCTURE
     1 Z25         1 TEMP              0 ****  ****    0 ROOT
