@<TRIPOS>MOLECULE
Z27
   43    46     1     0     0
SMALL
bcc


@<TRIPOS>ATOM
      1 S1           0.0000     0.0000     0.0000 ss         1 Z27      -0.171100
      2 C2           1.7580     0.0000     0.0000 cc         1 Z27       0.455100
      3 N3           2.2060     0.0000     1.2100 nd         1 Z27      -0.460100
      4 C4           1.3090    -0.0000     2.2140 ca         1 Z27       0.087400
      5 C5          -0.0140    -0.0000     1.7620 ca         1 Z27      -0.018100
      6 C6           1.5410    -0.0010     3.6060 ca         1 Z27      -0.046000
      7 C7           0.4890    -0.0020     4.4870 ca         1 Z27      -0.033600
      8 C8          -0.8200    -0.0020     4.0250 ca         1 Z27      -0.091000
      9 C9          -1.0710    -0.0010     2.6690 ca         1 Z27      -0.035000
     10 Cl10         0.7960    -0.0040     6.1960 cl         1 Z27      -0.015400
     11 S11          2.7640     0.0010    -1.4460 ss         1 Z27      -0.217100
     12 C12          6.4040    -1.1260    -0.0870 ca         1 Z27      -0.152000
     13 C13          6.8750     0.0770     0.4220 ca         1 Z27       0.097600
     14 C14          6.0880     1.2180     0.3500 ca         1 Z27      -0.167000
     15 C15          4.8350     1.1570    -0.2280 ca         1 Z27       0.035400
     16 Cl16         3.8500     2.5840    -0.3190 cl         1 Z27       0.023600
     17 C17          4.3630    -0.0460    -0.7380 ca         1 Z27      -0.006100
     18 C18          5.1510    -1.1870    -0.6660 ca         1 Z27       0.003000
     19 S19          9.1750     1.3760     0.6230 sy         1 Z27       1.039200
     20 O20          8.4240     2.5760     0.7470 o          1 Z27      -0.573800
     21 O21         10.3780     1.1350     1.3410 o          1 Z27      -0.573800
     22 C24          9.5730     1.2110    -1.0850 ca         1 Z27      -0.132500
     23 C25          9.1880     2.1900    -1.9820 ca         1 Z27       0.015000
     24 C26          9.5010     2.0610    -3.3220 ca         1 Z27      -0.072000
     25 C27         10.1980     0.9530    -3.7670 ca         1 Z27      -0.148300
     26 C28         10.5370     0.8130    -5.2280 c3         1 Z27       0.636200
     27 F29         11.7800     1.4030    -5.4770 f          1 Z27      -0.202633
     28 F30         10.5890    -0.5440    -5.5670 f          1 Z27      -0.202633
     29 F31          9.5570     1.4480    -5.9970 f          1 Z27      -0.202633
     30 C32         10.5840    -0.0270    -2.8700 ca         1 Z27      -0.070000
     31 C33         10.2760     0.1040    -1.5280 ca         1 Z27       0.038400
     32 Cl34        10.7660    -1.1210    -0.4010 cl         1 Z27       0.025600
     33 H6           2.5570    -0.0000     3.9820 ha         1 Z27       0.126000
     34 H8          -1.6440    -0.0030     4.7280 ha         1 Z27       0.120000
     35 H9          -2.0920    -0.0010     2.3090 ha         1 Z27       0.115000
     36 H12          7.0190    -2.0160    -0.0310 ha         1 Z27       0.116000
     37 H14          6.4560     2.1560     0.7470 ha         1 Z27       0.180000
     38 H18          4.7840    -2.1260    -1.0630 ha         1 Z27       0.118000
     39 HN22         8.4150    -0.5440     1.6890 hn         1 Z27       0.356800
     40 H25          8.6420     3.0580    -1.6340 ha         1 Z27       0.140000
     41 H26          9.1980     2.8280    -4.0250 ha         1 Z27       0.128000
     42 H32         11.1320    -0.8940    -3.2180 ha         1 Z27       0.134000
     43 N22          8.1450     0.1390     1.0080 nu         1 Z27      -0.401500
@<TRIPOS>BOND
     1     1     2 1   
     2     1     5 1   
     3     2     3 2   
     4     2    11 1   
     5     3     4 1   
     6     4     5 ar  
     7     4     6 ar  
     8     5     9 ar  
     9     6     7 ar  
    10     6    33 1   
    11     7     8 ar  
    12     7    10 1   
    13     8     9 ar  
    14     8    34 1   
    15     9    35 1   
    16    11    17 1   
    17    12    13 ar  
    18    12    18 ar  
    19    12    36 1   
    20    13    14 ar  
    21    13    43 1   
    22    14    15 ar  
    23    14    37 1   
    24    15    16 1   
    25    15    17 ar  
    26    17    18 ar  
    27    18    38 1   
    28    19    20 2   
    29    19    21 2   
    30    19    22 1   
    31    19    43 1   
    32    22    23 ar  
    33    22    31 ar  
    34    23    24 ar  
    35    23    40 1   
    36    24    25 ar  
    37    24    41 1   
    38    25    26 1   
    39    25    30 ar  
    40    26    27 1   
    41    26    28 1   
    42    26    29 1   
    43    30    31 ar  
    44    30    42 1   
    45    31    32 1   
    46    39    43 1   
@<TRIPOS>SUBSTRUCTURE
     1 Z27         1 TEMP              0 ****  ****    0 ROOT
