@<TRIPOS>MOLECULE
molecule
   43    46     1     0     0
SMALL
bcc


@<TRIPOS>ATOM
      1 S1           0.0000     0.0000     0.0000 ss         1 Z27      -0.087100
      2 C2           1.7580     0.0000     0.0000 cc         1 Z27       0.428100
      3 N3           2.2060     0.0000     1.2100 nd         1 Z27      -0.583100
      4 C4           1.3090    -0.0000     2.2140 ca         1 Z27       0.139400
      5 C5          -0.0140    -0.0000     1.7620 ca         1 Z27      -0.057100
      6 C6           1.5410    -0.0010     3.6060 ca         1 Z27      -0.073000
      7 C7           0.4890    -0.0020     4.4870 ca         1 Z27       0.031400
      8 C8          -0.8200    -0.0020     4.0250 ca         1 Z27      -0.117000
      9 C9          -1.0710    -0.0010     2.6690 ca         1 Z27      -0.077000
     10 Cl10         0.7960    -0.0040     6.1960 cl         1 Z27      -0.099400
     11 S11          2.7640     0.0010    -1.4460 ss         1 Z27      -0.084100
     12 C12          6.4040    -1.1260    -0.0870 ca         1 Z27      -0.160000
     13 C13          6.8750     0.0770     0.4220 ca         1 Z27       0.173600
     14 C14          6.0880     1.2180     0.3500 ca         1 Z27      -0.169000
     15 C15          4.8350     1.1570    -0.2280 ca         1 Z27       0.100400
     16 Cl16         3.8500     2.5840    -0.3190 cl         1 Z27      -0.069400
     17 C17          4.3630    -0.0460    -0.7380 ca         1 Z27      -0.034100
     18 C18          5.1510    -1.1870    -0.6660 ca         1 Z27      -0.040000
     19 S19          9.1750     1.3760     0.6230 sy         1 Z27       1.422200
     20 O20          8.4240     2.5760     0.7470 o          1 Z27      -0.616300
     21 O21         10.3780     1.1350     1.3410 o          1 Z27      -0.616300
     22 C24          9.5730     1.2110    -1.0850 ca         1 Z27      -0.286500
     23 C25          9.1880     2.1900    -1.9820 ca         1 Z27      -0.019000
     24 C26          9.5010     2.0610    -3.3220 ca         1 Z27      -0.103000
     25 C27         10.1980     0.9530    -3.7670 ca         1 Z27      -0.119300
     26 C28         10.5370     0.8130    -5.2280 c3         1 Z27       0.672200
     27 F29         11.7800     1.4030    -5.4770 f          1 Z27      -0.216633
     28 F30         10.5890    -0.5440    -5.5670 f          1 Z27      -0.216633
     29 F31          9.5570     1.4480    -5.9970 f          1 Z27      -0.216633
     30 C32         10.5840    -0.0270    -2.8700 ca         1 Z27      -0.097000
     31 C33         10.2760     0.1040    -1.5280 ca         1 Z27       0.109400
     32 Cl34        10.7660    -1.1210    -0.4010 cl         1 Z27      -0.068400
     33 H6           2.5570    -0.0000     3.9820 ha         1 Z27       0.160000
     34 H8          -1.6440    -0.0030     4.7280 ha         1 Z27       0.151000
     35 H9          -2.0920    -0.0010     2.3090 ha         1 Z27       0.143000
     36 H12          7.0190    -2.0160    -0.0310 ha         1 Z27       0.145000
     37 H14          6.4560     2.1560     0.7470 ha         1 Z27       0.196000
     38 H18          4.7840    -2.1260    -1.0630 ha         1 Z27       0.152000
     39 HN22         8.4150    -0.5440     1.6890 hn         1 Z27       0.474800
     40 H25          8.6420     3.0580    -1.6340 ha         1 Z27       0.173000
     41 H26          9.1980     2.8280    -4.0250 ha         1 Z27       0.160000
     42 H32         11.1320    -0.8940    -3.2180 ha         1 Z27       0.167000
     43 N22          8.1450     0.1390     1.0080 nu         1 Z27      -0.768500
@<TRIPOS>BOND
     1     1     2 1
     2     1     5 1
     3     2     3 2
     4     2    11 1
     5     3     4 1
     6     4     5 ar
     7     4     6 ar
     8     5     9 ar
     9     6     7 ar
    10     7     8 ar
    11     7    10 1
    12     8     9 ar
    13    11    17 1
    14    12    13 ar
    15    12    18 ar
    16    13    14 ar
    17    13    43 1
    18    14    15 ar
    19    15    16 1
    20    15    17 ar
    21    17    18 ar
    22    19    20 2
    23    19    21 2
    24    19    43 1
    25    19    22 1
    26    22    23 ar
    27    22    31 ar
    28    23    24 ar
    29    24    25 ar
    30    25    26 1
    31    25    30 ar
    32    26    27 1
    33    26    28 1
    34    26    29 1
    35    30    31 ar
    36    31    32 1
    37     6    33 1
    38     8    34 1
    39     9    35 1
    40    12    36 1
    41    14    37 1
    42    18    38 1
    43    43    39 1
    44    23    40 1
    45    24    41 1
    46    30    42 1
@<TRIPOS>SUBSTRUCTURE
     1 Z27         1 TEMP              0 ****  ****    0 ROOT
