@<TRIPOS>MOLECULE
Z2M
   28    31     1     0     0
SMALL
bcc


@<TRIPOS>ATOM
      1 C          -0.0710    0.3850    0.1160 cc        1 Z2M      0.243600
      2 N           5.3220   -2.2750   -0.1870 nc        1 Z2M     -0.510100
      3 O           1.3210    0.4020    0.1290 os        1 Z2M     -0.348800
      4 C1          1.7100    0.0320    1.4270 cc        1 Z2M      0.278200
      5 N1          6.1350   -1.6640    0.6770 na        1 Z2M     -0.113800
      6 C2          3.1260    0.0050    1.7250 ca        1 Z2M     -0.015500
      7 N2          5.9240    0.0600    2.4770 nb        1 Z2M     -0.659000
      8 C3          4.0460   -0.8150    1.0580 ca        1 Z2M     -0.285200
      9 C4          4.0560   -1.8170   -0.0040 cd        1 Z2M      0.401900
     10 C5          5.4420   -0.7420    1.4820 ca        1 Z2M      0.416800
     11 C6          4.9940    0.8090    3.0760 ca        1 Z2M      0.425200
     12 C7          3.6140    0.8200    2.7490 ca        1 Z2M     -0.262300
     13 C8          2.8890   -2.2770   -0.7530 cx        1 Z2M     -0.148000
     14 C9          3.0250   -2.7610   -2.1770 cx        1 Z2M     -0.115900
     15 C10         2.7230   -3.7410   -1.0870 cx        1 Z2M     -0.115900
     16 C11         0.5870   -0.2030    2.2030 cd        1 Z2M     -0.232300
     17 C12        -0.5610    0.0200    1.3540 cd        1 Z2M     -0.266300
     18 H          -0.5110    0.6590   -0.8390 h4        1 Z2M      0.056100
     19 H6          5.3680    1.4640    3.8860 h4        1 Z2M      0.028100
     20 H7          2.9350    1.4810    3.3040 ha        1 Z2M      0.152000
     21 H8          1.9790   -1.6980   -0.4880 hc        1 Z2M      0.100700
     22 H9          4.0230   -2.7730   -2.6500 hc        1 Z2M      0.076200
     23 H9A         2.2310   -2.4890   -2.8950 hc        1 Z2M      0.076200
     24 H10         3.5060   -4.4550   -0.7760 hc        1 Z2M      0.076200
     25 H10A        1.7120   -4.1800   -1.0180 hc        1 Z2M      0.076200
     26 H11         0.5580   -0.5080    3.2450 ha        1 Z2M      0.166000
     27 H12        -1.6000   -0.0840    1.6540 ha        1 Z2M      0.165000
     28 HN1         7.1130   -1.8350    0.6690 hn        1 Z2M      0.336700
@<TRIPOS>BOND
     1    1    3 1   
     2    1   17 2   
     3    1   18 1   
     4    2    5 1   
     5    2    9 2   
     6    3    4 1   
     7    4    6 1   
     8    4   16 2   
     9    5   10 1   
    10    5   28 1   
    11    6    8 ar  
    12    6   12 ar  
    13    7   10 ar  
    14    7   11 ar  
    15    8    9 1   
    16    8   10 ar  
    17    9   13 1   
    18   11   12 ar  
    19   11   19 1   
    20   12   20 1   
    21   13   14 1   
    22   13   15 1   
    23   13   21 1   
    24   14   15 1   
    25   14   22 1   
    26   14   23 1   
    27   15   24 1   
    28   15   25 1   
    29   16   17 1   
    30   16   26 1   
    31   17   27 1   
@<TRIPOS>SUBSTRUCTURE
     1 Z2M         1 TEMP              0 ****  ****    0 ROOT
