@<TRIPOS>MOLECULE
Z2T
   38    39     1     0     0
SMALL
bcc


@<TRIPOS>ATOM
      1 C1          0.0310   -0.1560   -0.0860 ca        1 Z2T      0.096100
      2 O1         -0.5690   -0.2330   -1.3230 oh        1 Z2T     -0.503100
      3 C2          1.4360    0.0110   -0.0830 ca        1 Z2T     -0.085300
      4 C3          2.1080    0.1270    1.1270 ca        1 Z2T     -0.090000
      5 C4          1.3900    0.0740    2.3380 ca        1 Z2T      0.103100
      6 O4          2.1670    0.2040    3.4730 os        1 Z2T     -0.319900
      7 C5          0.0040   -0.0960    2.3450 ca        1 Z2T     -0.159000
      8 C6         -0.6720   -0.2100    1.1250 ca        1 Z2T     -0.032600
      9 CL6        -2.3610   -0.4200    1.1440 cl        1 Z2T     -0.085400
     10 C7          1.4800    0.1280    4.7170 c3        1 Z2T      0.110700
     11 C1'         2.1830    0.0430   -1.3850 c3        1 Z2T      0.167400
     12 C2'         2.3590    1.4860   -1.9010 c3        1 Z2T      0.088100
     13 O2'         1.1400    2.0520   -2.3530 oh        1 Z2T     -0.607800
     14 C3'         3.2890    1.5070   -3.1260 c3        1 Z2T      0.106100
     15 O3'         3.6450    2.8370   -3.4660 oh        1 Z2T     -0.608800
     16 C4'         4.6020    0.7720   -2.8160 c3        1 Z2T      0.123100
     17 O4'         5.3810    0.6270   -3.9900 oh        1 Z2T     -0.595800
     18 C5'         4.2790   -0.6380   -2.3050 c3        1 Z2T      0.099100
     19 O5'         3.4620   -0.5520   -1.1350 os        1 Z2T     -0.421600
     20 C6'         5.5510   -1.3700   -1.8660 c3        1 Z2T      0.140400
     21 O6'         5.2790   -2.7120   -1.5310 oh        1 Z2T     -0.595800
     22 HO1        -1.4970   -0.4870   -1.1990 ho        1 Z2T      0.436000
     23 H3          3.2030    0.2460    1.1460 ha        1 Z2T      0.174000
     24 H5         -0.5610   -0.1420    3.2870 ha        1 Z2T      0.157000
     25 H7          2.2990    0.2440    5.4710 h1        1 Z2T      0.048033
     26 H7A         0.9760   -0.8630    4.8310 h1        1 Z2T      0.048033
     27 H7B         0.7390    0.9580    4.8090 h1        1 Z2T      0.048033
     28 H1'         1.6320   -0.5630   -2.1620 h1        1 Z2T      0.079700
     29 H2'         2.7850    2.1340   -1.0850 h1        1 Z2T      0.064700
     30 HO2'        0.4360    1.7510   -1.7630 ho        1 Z2T      0.425000
     31 H3'         2.7710    1.0230   -4.0010 h1        1 Z2T      0.063700
     32 HO3'        2.8170    3.3230   -3.5800 ho        1 Z2T      0.428000
     33 H4'         5.1830    1.3470   -2.0430 h1        1 Z2T      0.061700
     34 HO4'        5.4750    1.5140   -4.3650 ho        1 Z2T      0.425000
     35 H5'         3.7460   -1.2280   -3.1000 h1        1 Z2T      0.071700
     36 H6'         6.0210   -0.8360   -0.9990 h1        1 Z2T      0.064200
     37 H6'A        6.2640   -1.4130   -2.7330 h1        1 Z2T      0.064200
     38 HO6'        4.6310   -2.7000   -0.8140 ho        1 Z2T      0.410000
@<TRIPOS>BOND
     1    1    2 1
     2    1    3 ar
     3    1    8 ar
     4    2   22 1
     5    3    4 ar
     6    3   11 1
     7    4    5 ar
     8    4   23 1
     9    5    6 1
    10    5    7 ar
    11    6   10 1
    12    7    8 ar
    13    7   24 1
    14    8    9 1
    15   10   25 1
    16   10   26 1
    17   10   27 1
    18   11   12 1
    19   11   19 1
    20   11   28 1
    21   12   13 1
    22   12   14 1
    23   12   29 1
    24   13   30 1
    25   14   15 1
    26   14   16 1
    27   14   31 1
    28   15   32 1
    29   16   17 1
    30   16   18 1
    31   16   33 1
    32   17   34 1
    33   18   19 1
    34   18   20 1
    35   18   35 1
    36   20   21 1
    37   20   36 1
    38   20   37 1
    39   21   38 1
@<TRIPOS>SUBSTRUCTURE
     1 Z2T         1 TEMP              0 ****  ****    0 ROOT
