@<TRIPOS>MOLECULE
molecule
   38    39     1     0     0
SMALL
bcc


@<TRIPOS>ATOM
      1 N1           0.0000     0.0000     0.0000 nc         1 Z30      -0.525800
      2 N2           1.2890     0.0000     0.0000 na         1 Z30       0.080400
      3 C3           1.7490     0.0000     1.2620 cc         1 Z30      -0.117600
      4 C4           3.1750     0.0050     1.7500 c3         1 Z30      -0.012100
      5 C5           3.1790     0.4230     3.2260 c3         1 Z30      -0.077400
      6 C6           2.1580    -0.4150     4.0000 c3         1 Z30      -0.065700
      7 C7           2.3380    -0.1780     5.5010 c3         1 Z30      -0.066000
      8 C8           2.1230     1.3040     5.8130 c3         1 Z30      -0.085433
      9 C9           1.3180    -1.0160     6.2750 c3         1 Z30      -0.085433
     10 C10          3.7540    -0.5860     5.9160 c3         1 Z30      -0.085433
     11 C11          0.7390    -0.0070     3.5850 c3         1 Z30      -0.004100
     12 C12          0.6700    -0.0020     2.0830 cd         1 Z30      -0.184600
     13 C13         -0.4550    -0.0020     1.2410 cd         1 Z30       0.233800
     14 C14         -1.8710    -0.0020     1.6620 c          1 Z30       0.625600
     15 N15         -2.8490    -0.0000     0.7340 ns         1 Z30      -0.522300
     16 N16         -4.1590    -0.0000     1.1220 nz         1 Z30      -0.533600
     17 O17         -2.1550    -0.0030     2.8430 o          1 Z30      -0.550100
     18 HN2          1.8630     0.0010    -0.8200 hn         1 Z30       0.352700
     19 H4           3.5970    -0.9880     1.6520 hc         1 Z30       0.065700
     20 H4A          3.7550     0.7130     1.1700 hc         1 Z30       0.065700
     21 H5           2.9170     1.4710     3.3030 hc         1 Z30       0.063200
     22 H5A          4.1660     0.2610     3.6420 hc         1 Z30       0.063200
     23 H6           2.3100    -1.4640     3.7750 hc         1 Z30       0.059700
     24 H8           1.0800     1.5560     5.6660 hc         1 Z30       0.039144
     25 H8A          2.4000     1.5000     6.8420 hc         1 Z30       0.039144
     26 H8B          2.7370     1.9050     5.1530 hc         1 Z30       0.039144
     27 H9           1.5970    -1.0480     7.3220 hc         1 Z30       0.039144
     28 H9A          0.3360    -0.5700     6.1770 hc         1 Z30       0.039144
     29 H9B          1.3000    -2.0230     5.8760 hc         1 Z30       0.039144
     30 H10          3.7980    -0.6900     6.9940 hc         1 Z30       0.039144
     31 H10A         4.4570     0.1740     5.5980 hc         1 Z30       0.039144
     32 H10B         4.0090    -1.5310     5.4520 hc         1 Z30       0.039144
     33 H11          0.5560     1.0000     3.9380 hc         1 Z30       0.073200
     34 H11A         0.0470    -0.7540     3.9550 hc         1 Z30       0.073200
     35 HN15        -2.6160     0.0050    -0.2390 hn         1 Z30       0.402500
     36 HN16        -4.7470     0.0010     0.3120 hn         1 Z30       0.468467
     37 HN1A        -4.3450    -0.8180     1.6680 hn         1 Z30       0.468467
     38 H163        -4.3450     0.8170     1.6690 hn         1 Z30       0.468467
@<TRIPOS>BOND
     1     1     2 1
     2     1    13 2
     3     2     3 1
     4     3     4 1
     5     3    12 2
     6     4     5 1
     7     5     6 1
     8     6     7 1
     9     6    11 1
    10     7     8 1
    11     7     9 1
    12     7    10 1
    13    11    12 1
    14    12    13 1
    15    13    14 1
    16    14    15 1
    17    14    17 2
    18    15    16 1
    19     2    18 1
    20     4    19 1
    21     4    20 1
    22     5    21 1
    23     5    22 1
    24     6    23 1
    25     8    24 1
    26     8    25 1
    27     8    26 1
    28     9    27 1
    29     9    28 1
    30     9    29 1
    31    10    30 1
    32    10    31 1
    33    10    32 1
    34    11    33 1
    35    11    34 1
    36    15    35 1
    37    16    36 1
    38    16    37 1
    39    38    16 1
@<TRIPOS>SUBSTRUCTURE
     1 Z30         1 TEMP              0 ****  ****    0 ROOT
