@<TRIPOS>MOLECULE
Z30
   38    39     1     0     0
SMALL
bcc


@<TRIPOS>ATOM
      1 N1           0.0000     0.0000     0.0000 nc         1 Z30      -0.676800
      2 N2           1.2890     0.0000     0.0000 na         1 Z30       0.651400
      3 C3           1.7490     0.0000     1.2620 cc         1 Z30      -0.340600
      4 C4           3.1750     0.0050     1.7500 c3         1 Z30       0.082900
      5 C5           3.1790     0.4230     3.2260 c3         1 Z30      -0.040400
      6 C6           2.1580    -0.4150     4.0000 c3         1 Z30      -0.046700
      7 C7           2.3380    -0.1780     5.5010 c3         1 Z30      -0.066000
      8 C8           2.1230     1.3040     5.8130 c3         1 Z30      -0.001100
      9 C9           1.3180    -1.0160     6.2750 c3         1 Z30      -0.001100
     10 C10          3.7540    -0.5860     5.9160 c3         1 Z30      -0.001100
     11 C11          0.7390    -0.0070     3.5850 c3         1 Z30       0.049900
     12 C12          0.6700    -0.0020     2.0830 cd         1 Z30      -0.153600
     13 C13         -0.4550    -0.0020     1.2410 cd         1 Z30       0.205800
     14 C14         -1.8710    -0.0020     1.6620 c          1 Z30       0.589600
     15 N15         -2.8490    -0.0000     0.7340 ns         1 Z30      -0.381300
     16 N16         -4.1590    -0.0000     1.1220 nz         1 Z30       0.286400
     17 O17         -2.1550    -0.0030     2.8430 o          1 Z30      -0.594100
     18 HN2          1.8630     0.0010    -0.8200 hn         1 Z30       0.145700
     19 H4           3.5970    -0.9880     1.6520 hc         1 Z30       0.026200
     20 H4A          3.7550     0.7130     1.1700 hc         1 Z30       0.026200
     21 H5           2.9170     1.4710     3.3030 hc         1 Z30       0.037700
     22 H5A          4.1660     0.2610     3.6420 hc         1 Z30       0.037700
     23 H6           2.3100    -1.4640     3.7750 hc         1 Z30       0.037700
     24 H8           1.0800     1.5560     5.6660 hc         1 Z30       0.010256
     25 H8A          2.4000     1.5000     6.8420 hc         1 Z30       0.010256
     26 H8B          2.7370     1.9050     5.1530 hc         1 Z30       0.010256
     27 H9           1.5970    -1.0480     7.3220 hc         1 Z30       0.010256
     28 H9A          0.3360    -0.5700     6.1770 hc         1 Z30       0.010256
     29 H9B          1.3000    -2.0230     5.8760 hc         1 Z30       0.010256
     30 H10          3.7980    -0.6900     6.9940 hc         1 Z30       0.010256
     31 H10A         4.4570     0.1740     5.5980 hc         1 Z30       0.010256
     32 H10B         4.0090    -1.5310     5.4520 hc         1 Z30       0.010256
     33 H11          0.5560     1.0000     3.9380 hc         1 Z30       0.047200
     34 H11A         0.0470    -0.7540     3.9550 hc         1 Z30       0.047200
     35 HN15        -2.6160     0.0050    -0.2390 hn         1 Z30       0.283500
     36 HN16        -4.7470     0.0010     0.3120 hn         1 Z30       0.218133
     37 HN1A        -4.3450    -0.8180     1.6680 hn         1 Z30       0.218133
     38 H163        -4.3450     0.8170     1.6690 hn         1 Z30       0.218133
@<TRIPOS>BOND
     1     1     2 1   
     2     1    13 2   
     3     2     3 1   
     4     2    18 1   
     5     3     4 1   
     6     3    12 2   
     7     4     5 1   
     8     4    19 1   
     9     4    20 1   
    10     5     6 1   
    11     5    21 1   
    12     5    22 1   
    13     6     7 1   
    14     6    11 1   
    15     6    23 1   
    16     7     8 1   
    17     7     9 1   
    18     7    10 1   
    19     8    24 1   
    20     8    25 1   
    21     8    26 1   
    22     9    27 1   
    23     9    28 1   
    24     9    29 1   
    25    10    30 1   
    26    10    31 1   
    27    10    32 1   
    28    11    12 1   
    29    11    33 1   
    30    11    34 1   
    31    12    13 1   
    32    13    14 1   
    33    14    15 1   
    34    14    17 2   
    35    15    16 1   
    36    15    35 1   
    37    16    36 1   
    38    16    37 1   
    39    16    38 1   
@<TRIPOS>SUBSTRUCTURE
     1 Z30         1 TEMP              0 ****  ****    0 ROOT
