@<TRIPOS>MOLECULE
Z31
   37    39     1     0     0
SMALL
bcc


@<TRIPOS>ATOM
      1 C1           0.0000     0.0000     0.0000 c2         1 Z31      -0.123000
      2 C2           1.3100     0.0000     0.0000 c2         1 Z31      -0.193200
      3 C3           2.0630     0.0000     1.3050 c3         1 Z31       0.200000
      4 N4           2.9930    -1.1300     1.3320 nu         1 Z31      -0.437900
      5 C5           3.7950    -1.3360     2.4320 cc         1 Z31       0.612300
      6 S6           4.9190    -2.6140     2.5870 ss         1 Z31      -0.316300
      7 C7           5.3770    -2.0390     4.1880 cc         1 Z31      -0.385000
      8 C8           4.6230    -0.9120     4.4620 cd         1 Z31       0.595200
      9 N9           3.8030    -0.5810     3.4920 nd         1 Z31      -0.740000
     10 N10          4.7270    -0.1970     5.6450 nv         1 Z31      -0.475500
     11 C11          6.3380    -2.6210     5.0360 c          1 Z31       0.720300
     12 C12          7.1700    -3.7430     4.5510 ca         1 Z31      -0.155600
     13 C13          7.4570    -3.8520     3.2010 ca         1 Z31      -0.068000
     14 C14          8.2460    -4.9180     2.7470 ca         1 Z31      -0.045000
     15 C15          8.7390    -5.8690     3.6780 ca         1 Z31      -0.020000
     16 C16          8.4300    -5.7310     5.0430 ca         1 Z31      -0.104000
     17 C17          7.6680    -4.6890     5.4640 ca         1 Z31      -0.052000
     18 C18          8.5600    -5.0630     1.3830 ca         1 Z31      -0.081000
     19 C19          9.3280    -6.1080     0.9760 ca         1 Z31      -0.106000
     20 C20          9.8120    -7.0430     1.8900 ca         1 Z31      -0.095000
     21 C21          9.5290    -6.9350     3.2180 ca         1 Z31      -0.093000
     22 O22          6.4840    -2.2010     6.1720 o          1 Z31      -0.635100
     23 H1          -0.5420     0.0000     0.9380 ha         1 Z31       0.087500
     24 H1A         -0.5420     0.0000    -0.9380 ha         1 Z31       0.087500
     25 H2           1.8510     0.0000    -0.9380 ha         1 Z31       0.108000
     26 H3           1.3620    -0.0900     2.1270 h1         1 Z31       0.032700
     27 H3A          2.6170     0.9260     1.4030 h1         1 Z31       0.032700
     28 HN4          3.0490    -1.7510     0.5490 hn         1 Z31       0.300800
     29 HN10         4.1390     0.5970     5.8040 hn         1 Z31       0.289300
     30 HN1A         5.4020    -0.4660     6.3340 hn         1 Z31       0.289300
     31 H13          7.1950    -3.0460     2.5250 ha         1 Z31       0.135000
     32 H16          8.8060    -6.4510     5.7590 ha         1 Z31       0.107000
     33 H17          7.4410    -4.5850     6.5180 ha         1 Z31       0.118000
     34 H18          8.1910    -4.3440     0.6610 ha         1 Z31       0.105000
     35 H19          9.5680    -6.2170    -0.0750 ha         1 Z31       0.100000
     36 H20         10.4220    -7.8670     1.5400 ha         1 Z31       0.100000
     37 H21          9.9120    -7.6690     3.9170 ha         1 Z31       0.106000
@<TRIPOS>BOND
     1     1     2 2   
     2     1    23 1   
     3     1    24 1   
     4     2     3 1   
     5     2    25 1   
     6     3     4 1   
     7     3    26 1   
     8     3    27 1   
     9     4     5 1   
    10     4    28 1   
    11     5     6 1   
    12     5     9 2   
    13     6     7 1   
    14     7     8 2   
    15     7    11 1   
    16     8     9 1   
    17     8    10 1   
    18    10    29 1   
    19    10    30 1   
    20    11    12 1   
    21    11    22 2   
    22    12    13 ar  
    23    12    17 ar  
    24    13    14 ar  
    25    13    31 1   
    26    14    15 ar  
    27    14    18 ar  
    28    15    16 ar  
    29    15    21 ar  
    30    16    17 ar  
    31    16    32 1   
    32    17    33 1   
    33    18    19 ar  
    34    18    34 1   
    35    19    20 ar  
    36    19    35 1   
    37    20    21 ar  
    38    20    36 1   
    39    21    37 1   
@<TRIPOS>SUBSTRUCTURE
     1 Z31         1 TEMP              0 ****  ****    0 ROOT
