@<TRIPOS>MOLECULE
Z34
   62    65     1     0     0
SMALL
bcc


@<TRIPOS>ATOM
      1 C1           0.0000     0.0000     0.0000 ca         1 Z34      -0.000400
      2 F1          -0.6840     0.0050    -1.1640 f          1 Z34      -0.092900
      3 C2           1.3940     0.0000     0.0000 ca         1 Z34       0.034600
      4 C3           2.0570     0.0000     1.2270 ca         1 Z34      -0.014400
      5 F2           3.4060     0.0010     1.2740 f          1 Z34      -0.083900
      6 C4           1.3130    -0.0090     2.3940 ca         1 Z34       0.550600
      7 N5          -0.0100    -0.0090     2.3570 nb         1 Z34      -0.571000
      8 C6          -0.6740    -0.0050     1.2110 ca         1 Z34       0.494600
      9 O11         -4.7020     0.6360     1.3990 oh         1 Z34      -0.469100
     10 O1          -2.0320    -0.0050     1.2230 os         1 Z34      -0.262400
     11 C11         -2.4250     1.2940     1.1520 ca         1 Z34       0.151100
     12 C12         -1.4850     2.2930     0.9880 ca         1 Z34      -0.144000
     13 C13         -1.8930     3.6260     0.9150 ca         1 Z34      -0.201900
     14 C14         -3.2480     3.9450     1.0080 ca         1 Z34      -0.116000
     15 C15         -4.1810     2.9450     1.1710 ca         1 Z34      -0.099000
     16 C16         -3.7780     1.6190     1.2380 ca         1 Z34       0.158100
     17 C17         -0.8890     4.6990     0.7410 ce         1 Z34       0.202800
     18 N11          0.3640     4.3950     0.5540 n2         1 Z34      -0.477100
     19 N12         -1.2800     6.0210     0.7740 nz         1 Z34       0.192400
     20 O2           1.9490    -0.0140     3.5940 os         1 Z34      -0.313400
     21 C21          2.0280    -1.3110     3.9930 ca         1 Z34       0.117100
     22 C22          1.6010    -2.3240     3.1460 ca         1 Z34      -0.184000
     23 C23          1.6790    -3.6440     3.5470 ca         1 Z34      -0.048000
     24 C24          2.1810    -3.9630     4.7920 ca         1 Z34      -0.135000
     25 C25          2.6110    -2.9530     5.6490 ca         1 Z34      -0.082900
     26 C26          2.5270    -1.6210     5.2470 ca         1 Z34      -0.086000
     27 C27          3.1510    -3.2920     6.9860 ce         1 Z34       0.537800
     28 N21          2.6690    -4.3280     7.7430 nh         1 Z34      -0.508600
     29 C30          1.5840    -5.2350     7.3620 c3         1 Z34       0.235100
     30 N22          4.1120    -2.6330     7.5430 n2         1 Z34      -0.636900
     31 C28          3.4310    -4.3770     9.0010 c3         1 Z34       0.141800
     32 C29          4.4240    -3.2070     8.8580 c3         1 Z34       0.151800
     33 N31          2.1090     0.0060    -1.1980 nh         1 Z34      -0.347000
     34 C32          2.9290    -1.2130    -1.2060 c3         1 Z34      -0.001200
     35 C33          3.7310    -1.2700    -2.4810 c          1 Z34       0.979600
     36 O34          4.5580    -2.3030    -2.7070 o          1 Z34      -0.873800
     37 O35          3.6290    -0.3870    -3.2990 o          1 Z34      -0.873800
     38 C36          3.0380     1.1400    -1.1310 c3         1 Z34       0.157100
     39 H11         -5.1890     0.5290     0.5990 ho         1 Z34       0.420000
     40 H12         -0.4340     2.0430     0.9160 ha         1 Z34       0.144000
     41 H14         -3.5660     4.9800     0.9540 ha         1 Z34       0.081000
     42 H15         -5.2330     3.1940     1.2430 ha         1 Z34       0.129000
     43 H111         0.6500     3.4370     0.5290 hn         1 Z34       0.388400
     44 H121        -1.7450     6.2100     1.6400 hn         1 Z34       0.218133
     45 H122        -0.4750     6.6090     0.6920 hn         1 Z34       0.218133
     46 H22          1.2060    -2.0790     2.1670 ha         1 Z34       0.122000
     47 H23          1.3450    -4.4310     2.8820 ha         1 Z34       0.110000
     48 H24          2.2430    -4.9990     5.1010 ha         1 Z34       0.119000
     49 H26          2.8600    -0.8320     5.9100 ha         1 Z34       0.133000
     50 H301         1.9580    -5.9700     6.6590 h1         1 Z34       0.008033
     51 H302         1.2070    -5.7380     8.2440 h1         1 Z34       0.008033
     52 H303         0.7850    -4.6680     6.9000 h1         1 Z34       0.008033
     53 H281         2.7450    -4.1160     9.7980 h1         1 Z34       0.028200
     54 H282         4.0120    -5.2910     8.9850 h1         1 Z34       0.028200
     55 H291         4.2600    -2.4750     9.6390 h1         1 Z34       0.024200
     56 H292         5.4440    -3.5730     8.8790 h1         1 Z34       0.024200
     57 H321         3.6020    -1.2020    -0.3570 h1         1 Z34       0.024700
     58 H322         2.2860    -2.0830    -1.1460 h1         1 Z34       0.024700
     59 H361         4.0210     0.7850    -0.8440 h1         1 Z34       0.014700
     60 H362         2.6840     1.8540    -0.3970 h1         1 Z34       0.014700
     61 H363         3.0960     1.6180    -2.1010 h1         1 Z34       0.014700
     62 H123        -1.9160     6.2000     0.0220 hn         1 Z34       0.218133
@<TRIPOS>BOND
     1     1     2 1   
     2     1     3 ar  
     3     1     8 ar  
     4     3     4 ar  
     5     3    33 1   
     6     4     5 1   
     7     4     6 ar  
     8     6     7 ar  
     9     6    20 1   
    10     7     8 ar  
    11     8    10 1   
    12     9    16 1   
    13     9    39 1   
    14    10    11 1   
    15    11    12 ar  
    16    11    16 ar  
    17    12    13 ar  
    18    12    40 1   
    19    13    14 ar  
    20    13    17 1   
    21    14    15 ar  
    22    14    41 1   
    23    15    16 ar  
    24    15    42 1   
    25    17    18 2   
    26    17    19 1   
    27    18    43 1   
    28    19    44 1   
    29    19    45 1   
    30    19    62 1   
    31    20    21 1   
    32    21    22 ar  
    33    21    26 ar  
    34    22    23 ar  
    35    22    46 1   
    36    23    24 ar  
    37    23    47 1   
    38    24    25 ar  
    39    24    48 1   
    40    25    26 ar  
    41    25    27 1   
    42    26    49 1   
    43    27    28 1   
    44    27    30 2   
    45    28    29 1   
    46    28    31 1   
    47    29    50 1   
    48    29    51 1   
    49    29    52 1   
    50    30    32 1   
    51    31    32 1   
    52    31    53 1   
    53    31    54 1   
    54    32    55 1   
    55    32    56 1   
    56    33    34 1   
    57    33    38 1   
    58    34    35 1   
    59    34    57 1   
    60    34    58 1   
    61    35    36 1   
    62    35    37 1   
    63    38    59 1   
    64    38    60 1   
    65    38    61 1   
@<TRIPOS>SUBSTRUCTURE
     1 Z34         1 TEMP              0 ****  ****    0 ROOT
