@<TRIPOS>MOLECULE
molecule
   62    65     1     0     0
SMALL
bcc


@<TRIPOS>ATOM
      1 C1           0.0000     0.0000     0.0000 ca         1 Z34       0.042600
      2 F1          -0.6840     0.0050    -1.1640 f          1 Z34      -0.093900
      3 C2           1.3940     0.0000     0.0000 ca         1 Z34       0.070600
      4 C3           2.0570     0.0000     1.2270 ca         1 Z34       0.010600
      5 F2           3.4060     0.0010     1.2740 f          1 Z34      -0.087900
      6 C4           1.3130    -0.0090     2.3940 ca         1 Z34       0.576600
      7 N5          -0.0100    -0.0090     2.3570 nb         1 Z34      -0.691000
      8 C6          -0.6740    -0.0050     1.2110 ca         1 Z34       0.521600
      9 O11         -4.7020     0.6360     1.3990 oh         1 Z34      -0.479100
     10 O1          -2.0320    -0.0050     1.2230 os         1 Z34      -0.269400
     11 C11         -2.4250     1.2940     1.1520 ca         1 Z34       0.128100
     12 C12         -1.4850     2.2930     0.9880 ca         1 Z34      -0.099000
     13 C13         -1.8930     3.6260     0.9150 ca         1 Z34      -0.175900
     14 C14         -3.2480     3.9450     1.0080 ca         1 Z34      -0.145000
     15 C15         -4.1810     2.9450     1.1710 ca         1 Z34      -0.143000
     16 C16         -3.7780     1.6190     1.2380 ca         1 Z34       0.153100
     17 C17         -0.8890     4.6990     0.7410 ce         1 Z34       0.537800
     18 N11          0.3640     4.3950     0.5540 n2         1 Z34      -0.662100
     19 N12         -1.2800     6.0210     0.7740 nz         1 Z34      -0.800600
     20 O2           1.9490    -0.0140     3.5940 os         1 Z34      -0.319400
     21 C21          2.0280    -1.3110     3.9930 ca         1 Z34       0.102100
     22 C22          1.6010    -2.3240     3.1460 ca         1 Z34      -0.177000
     23 C23          1.6790    -3.6440     3.5470 ca         1 Z34      -0.090000
     24 C24          2.1810    -3.9630     4.7920 ca         1 Z34      -0.140000
     25 C25          2.6110    -2.9530     5.6490 ca         1 Z34      -0.087900
     26 C26          2.5270    -1.6210     5.2470 ca         1 Z34      -0.102000
     27 C27          3.1510    -3.2920     6.9860 ce         1 Z34       0.661800
     28 N21          2.6690    -4.3280     7.7430 nh         1 Z34      -0.841600
     29 C30          1.5840    -5.2350     7.3620 c3         1 Z34       0.244100
     30 N22          4.1120    -2.6330     7.5430 n2         1 Z34      -0.664900
     31 C28          3.4310    -4.3770     9.0010 c3         1 Z34       0.187800
     32 C29          4.4240    -3.2070     8.8580 c3         1 Z34       0.091800
     33 N31          2.1090     0.0060    -1.1980 nh         1 Z34      -0.523000
     34 C32          2.9290    -1.2130    -1.2060 c3         1 Z34       0.011800
     35 C33          3.7310    -1.2700    -2.4810 c          1 Z34       0.895600
     36 O34          4.5580    -2.3030    -2.7070 o          1 Z34      -0.823300
     37 O35          3.6290    -0.3870    -3.2990 o          1 Z34      -0.823300
     38 C36          3.0380     1.1400    -1.1310 c3         1 Z34       0.139100
     39 H11         -5.3160     0.6620     0.6830 ho         1 Z34       0.436000
     40 H12         -0.4340     2.0430     0.9160 ha         1 Z34       0.192000
     41 H14         -3.5660     4.9800     0.9540 ha         1 Z34       0.101000
     42 H15         -5.2330     3.1940     1.2430 ha         1 Z34       0.159000
     43 H111         1.0430     5.1210     0.4360 hn         1 Z34       0.432400
     44 H121        -1.7540     6.2070     1.6360 hn         1 Z34       0.461467
     45 H122        -0.4740     6.6090     0.7030 hn         1 Z34       0.461467
     46 H22          1.2060    -2.0790     2.1670 ha         1 Z34       0.143000
     47 H23          1.3450    -4.4310     2.8820 ha         1 Z34       0.143000
     48 H24          2.2430    -4.9990     5.1010 ha         1 Z34       0.141000
     49 H26          2.8600    -0.8320     5.9100 ha         1 Z34       0.162000
     50 H301         1.9580    -5.9700     6.6590 h1         1 Z34       0.037700
     51 H302         1.2080    -5.7390     8.2440 h1         1 Z34       0.037700
     52 H303         0.7840    -4.6680     6.9010 h1         1 Z34       0.037700
     53 H281         4.0120    -5.2910     8.9850 h1         1 Z34       0.057700
     54 H282         2.7450    -4.1160     9.7980 h1         1 Z34       0.057700
     55 H291         5.4440    -3.5730     8.8790 h1         1 Z34       0.061200
     56 H292         4.2600    -2.4750     9.6390 h1         1 Z34       0.061200
     57 H321         3.6020    -1.2020    -0.3570 h1         1 Z34       0.045700
     58 H322         2.2860    -2.0830    -1.1460 h1         1 Z34       0.045700
     59 H361         3.0960     1.6170    -2.1010 h1         1 Z34       0.043700
     60 H362         2.6830     1.8540    -0.3970 h1         1 Z34       0.043700
     61 H363         4.0200     0.7850    -0.8430 h1         1 Z34       0.043700
     62 H123        -1.8850     6.2100    -0.0010 hn         1 Z34       0.461467
@<TRIPOS>BOND
     1     1     2 1
     2     1     3 ar
     3     1     8 ar
     4     3     4 ar
     5     3    33 1
     6     4     5 1
     7     4     6 ar
     8     6     7 ar
     9     6    20 1
    10     7     8 ar
    11     8    10 1
    12     9    16 1
    13     9    39 1
    14    10    11 1
    15    11    12 ar
    16    11    16 ar
    17    12    13 ar
    18    12    40 1
    19    13    14 ar
    20    13    17 1
    21    14    15 ar
    22    14    41 1
    23    15    16 ar
    24    15    42 1
    25    17    18 2
    26    17    19 1
    27    18    43 1
    28    19    44 1
    29    19    45 1
    30    20    21 1
    31    21    22 ar
    32    21    26 ar
    33    22    23 ar
    34    22    46 1
    35    23    24 ar
    36    23    47 1
    37    24    25 ar
    38    24    48 1
    39    25    26 ar
    40    25    27 1
    41    26    49 1
    42    27    28 1
    43    27    30 2
    44    28    29 1
    45    28    31 1
    46    29    50 1
    47    29    51 1
    48    29    52 1
    49    30    32 1
    50    31    32 1
    51    31    53 1
    52    31    54 1
    53    32    55 1
    54    32    56 1
    55    33    34 1
    56    33    38 1
    57    34    35 1
    58    34    57 1
    59    34    58 1
    60    35    36 1
    61    35    37 1
    62    38    59 1
    63    38    60 1
    64    38    61 1
    65    62    19 1
@<TRIPOS>SUBSTRUCTURE
     1 Z34         1 TEMP              0 ****  ****    0 ROOT
