@<TRIPOS>MOLECULE
molecule
   27    29     1     0     0
SMALL
bcc


@<TRIPOS>ATOM
      1 C1           0.0000     0.0000     0.0000 ca         1 Z3R      -0.120000
      2 C2           1.3870     0.0000     0.0000 ca         1 Z3R      -0.091000
      3 C3           2.0750     0.0000     1.1930 ca         1 Z3R      -0.094000
      4 C4           1.3800     0.0000     2.4000 ca         1 Z3R      -0.023100
      5 C5          -0.0190     0.0000     2.4090 ca         1 Z3R       0.108400
      6 C6          -0.6960    -0.0000     1.1700 ca         1 Z3R      -0.061000
      7 N7          -0.5350    -0.0000     3.6510 nc         1 Z3R      -0.550100
      8 C8           0.2880    -0.0000     4.6470 cd         1 Z3R       0.436800
      9 S9           1.9480     0.0000     4.0680 ss         1 Z3R      -0.128100
     10 C10         -0.1090    -0.0000     6.0690 cd         1 Z3R      -0.140900
     11 C11          0.8160    -0.0000     7.1150 cd         1 Z3R       0.025000
     12 C12          0.2590    -0.0000     8.3240 cc         1 Z3R      -0.372600
     13 S13         -1.4920     0.0000     8.1730 ss         1 Z3R       0.079200
     14 C14         -1.3970     0.0060     6.4690 cc         1 Z3R       0.011900
     15 S15          1.1440     0.0000     9.8470 sy         1 Z3R       1.269200
     16 O16          0.2650    -0.5450    10.8230 o          1 Z3R      -0.512300
     17 O17          2.4260    -0.5440     9.5670 o          1 Z3R      -0.512300
     18 N18          1.3900     1.5820    10.2720 nz         1 Z3R      -0.807500
     19 H1          -0.5350     0.0000    -0.9420 ha         1 Z3R       0.151000
     20 H2           1.9290     0.0000    -0.9380 ha         1 Z3R       0.151000
     21 H6          -1.7800    -0.0000     1.1500 ha         1 Z3R       0.153000
     22 H3           3.1590    -0.0000     1.1930 ha         1 Z3R       0.146000
     23 H11          1.8880    -0.0010     6.9580 ha         1 Z3R       0.177000
     24 H14         -2.2510     0.0080     5.8020 h4         1 Z3R       0.224000
     25 H181         1.8470     1.6220    11.1610 hn         1 Z3R       0.493133
     26 H182         1.9630     2.0270     9.5820 hn         1 Z3R       0.493133
     27 H183         0.5090     2.0530    10.3280 hn         1 Z3R       0.493133
@<TRIPOS>BOND
     1     1     2 ar
     2     1     6 ar
     3     2     3 ar
     4     3     4 ar
     5     4     5 ar
     6     4     9 1
     7     5     6 ar
     8     5     7 1
     9     7     8 2
    10     8     9 1
    11     8    10 1
    12    10    11 1
    13    10    14 2
    14    11    12 2
    15    12    13 1
    16    12    15 1
    17    13    14 1
    18    15    16 2
    19    15    17 2
    20    15    18 1
    21     1    19 1
    22     2    20 1
    23     6    21 1
    24     3    22 1
    25    11    23 1
    26    14    24 1
    27    18    25 1
    28    18    26 1
    29    27    18 1
@<TRIPOS>SUBSTRUCTURE
     1 Z3R         1 TEMP              0 ****  ****    0 ROOT
