@<TRIPOS>MOLECULE
Z3R
   27    29     1     0     0
SMALL
bcc


@<TRIPOS>ATOM
      1 C1           0.0000     0.0000     0.0000 ca         1 Z3R      -0.091000
      2 C2           1.3870     0.0000     0.0000 ca         1 Z3R      -0.055000
      3 C3           2.0750     0.0000     1.1930 ca         1 Z3R      -0.056000
      4 C4           1.3800     0.0000     2.4000 ca         1 Z3R       0.014900
      5 C5          -0.0190     0.0000     2.4090 ca         1 Z3R       0.045400
      6 C6          -0.6960    -0.0000     1.1700 ca         1 Z3R      -0.026000
      7 N7          -0.5350    -0.0000     3.6510 nc         1 Z3R      -0.401100
      8 C8           0.2880    -0.0000     4.6470 cd         1 Z3R       0.397800
      9 S9           1.9480     0.0000     4.0680 ss         1 Z3R      -0.210100
     10 C10         -0.1090    -0.0000     6.0690 cd         1 Z3R      -0.151900
     11 C11          0.8160    -0.0000     7.1150 cd         1 Z3R       0.080000
     12 C12          0.2590    -0.0000     8.3240 cc         1 Z3R      -0.194600
     13 S13         -1.4920     0.0000     8.1730 ss         1 Z3R      -0.088800
     14 C14         -1.3970     0.0060     6.4690 cc         1 Z3R       0.113900
     15 S15          1.1440     0.0000     9.8470 sy         1 Z3R       0.971200
     16 O16          0.2650    -0.5450    10.8230 o          1 Z3R      -0.484800
     17 O17          2.4260    -0.5440     9.5670 o          1 Z3R      -0.484800
     18 N18          1.3900     1.5820    10.2720 nz         1 Z3R      -0.128500
     19 H1          -0.5350     0.0000    -0.9420 ha         1 Z3R       0.119000
     20 H2           1.9290     0.0000    -0.9380 ha         1 Z3R       0.118000
     21 H6          -1.7800    -0.0000     1.1500 ha         1 Z3R       0.118000
     22 H3           3.1590    -0.0000     1.1930 ha         1 Z3R       0.120000
     23 H11          1.8880    -0.0010     6.9580 ha         1 Z3R       0.146000
     24 H14         -2.2510     0.0080     5.8020 h4         1 Z3R       0.186000
     25 H181         1.8470     1.6220    11.1610 hn         1 Z3R       0.314467
     26 H182         1.9630     2.0270     9.5820 hn         1 Z3R       0.314467
     27 H183         0.5090     2.0530    10.3280 hn         1 Z3R       0.314467
@<TRIPOS>BOND
     1     1     2 ar  
     2     1     6 ar  
     3     1    19 1   
     4     2     3 ar  
     5     2    20 1   
     6     3     4 ar  
     7     3    22 1   
     8     4     5 ar  
     9     4     9 1   
    10     5     6 ar  
    11     5     7 1   
    12     6    21 1   
    13     7     8 2   
    14     8     9 1   
    15     8    10 1   
    16    10    11 1   
    17    10    14 2   
    18    11    12 2   
    19    11    23 1   
    20    12    13 1   
    21    12    15 1   
    22    13    14 1   
    23    14    24 1   
    24    15    16 2   
    25    15    17 2   
    26    15    18 1   
    27    18    25 1   
    28    18    26 1   
    29    18    27 1   
@<TRIPOS>SUBSTRUCTURE
     1 Z3R         1 TEMP              0 ****  ****    0 ROOT
