@<TRIPOS>MOLECULE
Z46
   35    36     1     0     0
SMALL
bcc


@<TRIPOS>ATOM
      1 N1           0.0000     0.0000     0.0000 nc         1 Z46      -0.675800
      2 N2           1.2880     0.0000     0.0000 na         1 Z46       0.652400
      3 C3           1.7480     0.0000     1.2620 cc         1 Z46      -0.339600
      4 C4           0.6700    -0.0030     2.0830 cd         1 Z46      -0.151600
      5 C5          -0.4560    -0.0020     1.2420 cd         1 Z46       0.205800
      6 C6          -1.8720    -0.0020     1.6620 c          1 Z46       0.588600
      7 N7          -2.8500    -0.0010     0.7350 ns         1 Z46      -0.380300
      8 N8          -4.1600    -0.0000     1.1240 nz         1 Z46       0.286400
      9 O9          -2.1550    -0.0040     2.8440 o          1 Z46      -0.594100
     10 C10          3.1750     0.0050     1.7490 c3         1 Z46       0.082900
     11 C11          3.1790     0.4220     3.2250 c3         1 Z46      -0.032400
     12 C12          2.1590    -0.4170     4.0000 c3         1 Z46      -0.054700
     13 C13          0.7390    -0.0090     3.5850 c3         1 Z46       0.064900
     14 C14          2.3400    -0.1810     5.5000 c3         1 Z46      -0.025400
     15 C15          3.7090    -0.7030     5.9380 c3         1 Z46      -0.034400
     16 C16          3.8900    -0.4670     7.4380 c3         1 Z46       0.007900
     17 HN2          1.8620     0.0010    -0.8200 hn         1 Z46       0.145700
     18 HN7         -2.6170    -0.0300    -0.2380 hn         1 Z46       0.283500
     19 HN8         -4.3470    -0.8190     1.6680 hn         1 Z46       0.217800
     20 HN8A        -4.7480     0.0030     0.3140 hn         1 Z46       0.217800
     21 H10          3.7540     0.7130     1.1690 hc         1 Z46       0.026700
     22 H10A         3.5960    -0.9880     1.6500 hc         1 Z46       0.026700
     23 H11          4.1670     0.2610     3.6400 hc         1 Z46       0.034200
     24 H11A         2.9160     1.4700     3.3030 hc         1 Z46       0.034200
     25 H12          2.3120    -1.4650     3.7740 hc         1 Z46       0.035700
     26 H13          0.5200     0.9820     3.9630 hc         1 Z46       0.036200
     27 H13A         0.0260    -0.7220     3.9800 hc         1 Z46       0.036200
     28 H14          1.5630    -0.7050     6.0440 hc         1 Z46       0.020700
     29 H14A         2.2740     0.8800     5.7090 hc         1 Z46       0.020700
     30 H15          4.4860    -0.1790     5.3940 hc         1 Z46       0.015700
     31 H15A         3.7750    -1.7640     5.7290 hc         1 Z46       0.015700
     32 H16          3.8250     0.5940     7.6480 hc         1 Z46       0.004700
     33 H16A         4.8600    -0.8370     7.7480 hc         1 Z46       0.004700
     34 H16B         3.1130    -0.9910     7.9820 hc         1 Z46       0.004700
     35 H83         -4.3430     0.8120     1.6780 hn         1 Z46       0.217800
@<TRIPOS>BOND
     1     1     2 1   
     2     1     5 2   
     3     2     3 1   
     4     2    17 1   
     5     3     4 2   
     6     3    10 1   
     7     4     5 1   
     8     4    13 1   
     9     5     6 1   
    10     6     7 1   
    11     6     9 2   
    12     7     8 1   
    13     7    18 1   
    14     8    19 1   
    15     8    20 1   
    16     8    35 1   
    17    10    11 1   
    18    10    21 1   
    19    10    22 1   
    20    11    12 1   
    21    11    23 1   
    22    11    24 1   
    23    12    13 1   
    24    12    14 1   
    25    12    25 1   
    26    13    26 1   
    27    13    27 1   
    28    14    15 1   
    29    14    28 1   
    30    14    29 1   
    31    15    16 1   
    32    15    30 1   
    33    15    31 1   
    34    16    32 1   
    35    16    33 1   
    36    16    34 1   
@<TRIPOS>SUBSTRUCTURE
     1 Z46         1 TEMP              0 ****  ****    0 ROOT
