@<TRIPOS>MOLECULE
molecule
   48    50     1     0     0
SMALL
bcc


@<TRIPOS>ATOM
      1 C1           0.0000     0.0000     0.0000 c3         1 Z47       0.129100
      2 C2           1.5310     0.0000     0.0000 c3         1 Z47       0.103100
      3 C3           2.0330     0.0000     1.4470 c3         1 Z47       0.126100
      4 C4           1.4520     1.2150     2.1770 c3         1 Z47       0.113100
      5 C5          -0.0750     1.1680     2.0930 c3         1 Z47       0.140100
      6 C6          -0.6620     2.4100     2.7670 c3         1 Z47       0.151400
      7 O2           2.0080     1.1660    -0.6720 oh         1 Z47      -0.579800
      8 O3           3.4600     0.0730     1.4570 oh         1 Z47      -0.594800
      9 O4           1.8560     1.1860     3.5480 oh         1 Z47      -0.610800
     10 O5          -0.4750     1.1390     0.7210 os         1 Z47      -0.382600
     11 O6          -2.0880     2.3110     2.7920 oh         1 Z47      -0.603800
     12 C7          -0.5120    -1.2770     0.6690 c3         1 Z47      -0.122400
     13 C8          -2.0360    -1.3370     0.5580 c3         1 Z47      -0.077400
     14 C9          -2.5470    -2.6130     1.2270 c3         1 Z47      -0.037100
     15 C10         -4.0490    -2.6710     1.1180 ca         1 Z47      -0.069300
     16 C15         -4.8270    -2.2150     2.1370 ca         1 Z47      -0.120000
     17 C14         -6.2180    -2.2610     2.0550 ca         1 Z47      -0.122000
     18 C13         -6.8380    -2.7640     0.9510 ca         1 Z47      -0.121000
     19 C12         -6.0670    -3.2430    -0.1210 ca         1 Z47      -0.033000
     20 C11         -4.6530    -3.1930    -0.0390 ca         1 Z47      -0.029000
     21 C16         -6.6720    -3.7680    -1.2770 ca         1 Z47      -0.115000
     22 C17         -5.8930    -4.2230    -2.2950 ca         1 Z47      -0.128000
     23 C18         -4.5030    -4.1790    -2.2120 ca         1 Z47      -0.127000
     24 C19         -3.8830    -3.6680    -1.1130 ca         1 Z47      -0.119000
     25 H21         -0.3590     0.0470    -1.0210 h1         1 Z47       0.088700
     26 H22          1.8900    -0.8880    -0.5060 h1         1 Z47       0.039700
     27 H23          1.7080    -0.9070     1.9410 h1         1 Z47       0.050700
     28 H24          1.8120     2.1230     1.7080 h1         1 Z47       0.075700
     29 H71C        -0.0800    -2.1400     0.1770 hc         1 Z47       0.046700
     30 H72C        -0.2260    -1.2770     1.7140 hc         1 Z47       0.046700
     31 H2           2.3760     0.9210    -1.5040 ho         1 Z47       0.403000
     32 H3           3.8140    -0.7370     1.7860 ho         1 Z47       0.403000
     33 H5          -0.4360     0.2770     2.5920 h1         1 Z47       0.059700
     34 H4           2.5430     1.8170     3.6870 ho         1 Z47       0.413000
     35 H61C        -0.2870     2.4810     3.7810 h1         1 Z47       0.036700
     36 H62C        -0.3710     3.2940     2.2120 h1         1 Z47       0.036700
     37 H6          -2.4470     3.0530     3.2500 ho         1 Z47       0.402000
     38 H81C        -2.3220    -1.3370    -0.4870 hc         1 Z47       0.061700
     39 H82C        -2.4680    -0.4730     1.0500 hc         1 Z47       0.061700
     40 H91C        -2.1160    -3.4770     0.7350 hc         1 Z47       0.047200
     41 H92C        -2.2610    -2.6130     2.2720 hc         1 Z47       0.047200
     42 H15         -4.3590    -1.8110     3.0270 ha         1 Z47       0.132000
     43 H14         -6.8140    -1.8920     2.8800 ha         1 Z47       0.128000
     44 H13         -7.9200    -2.7930     0.9010 ha         1 Z47       0.131000
     45 H16         -7.7520    -3.8090    -1.3560 ha         1 Z47       0.132000
     46 H19         -2.8010    -3.6390    -1.0630 ha         1 Z47       0.132000
     47 H17         -6.3610    -4.6350    -3.1810 ha         1 Z47       0.127000
     48 H18         -3.9070    -4.5480    -3.0380 ha         1 Z47       0.126000
@<TRIPOS>BOND
     1     1     2 1
     2     1    10 1
     3     1    12 1
     4     2     3 1
     5     2     7 1
     6     3     4 1
     7     3     8 1
     8     4     5 1
     9     4     9 1
    10     5     6 1
    11     5    10 1
    12     6    11 1
    13    12    13 1
    14    13    14 1
    15    14    15 1
    16    15    16 ar
    17    15    20 ar
    18    16    17 ar
    19    17    18 ar
    20    18    19 ar
    21    19    20 ar
    22    19    21 ar
    23    20    24 ar
    24    21    22 ar
    25    22    23 ar
    26    23    24 ar
    27     1    25 1
    28     2    26 1
    29     3    27 1
    30     4    28 1
    31    12    29 1
    32    12    30 1
    33     7    31 1
    34     8    32 1
    35     5    33 1
    36     9    34 1
    37     6    35 1
    38     6    36 1
    39    11    37 1
    40    13    38 1
    41    13    39 1
    42    14    40 1
    43    14    41 1
    44    16    42 1
    45    17    43 1
    46    18    44 1
    47    21    45 1
    48    24    46 1
    49    22    47 1
    50    23    48 1
@<TRIPOS>SUBSTRUCTURE
     1 Z47         1 TEMP              0 ****  ****    0 ROOT
