@<TRIPOS>MOLECULE
Z48
   54    57     1     0     0
SMALL
bcc


@<TRIPOS>ATOM
      1 C1           0.0000     0.0000     0.0000 c3         1 Z48       0.080200
      2 C2           1.5070     0.0000     0.0000 ca         1 Z48      -0.396900
      3 C3           2.2140     0.0000     1.1870 ca         1 Z48       0.484200
      4 N4           3.5390    -0.0000     1.1530 nb         1 Z48      -0.691000
      5 C5           4.1910    -0.0000     0.0010 ca         1 Z48       0.701900
      6 N6           5.5770    -0.0010     0.0090 nu         1 Z48      -0.296300
      7 C7           6.2690    -0.1180     1.2190 ca         1 Z48       0.003600
      8 C8           5.8030    -0.9770     2.2060 ca         1 Z48      -0.116500
      9 C9           6.4890    -1.0900     3.4000 ca         1 Z48      -0.084000
     10 C10          7.6360    -0.3490     3.6120 ca         1 Z48      -0.119000
     11 C11          8.1030     0.5070     2.6320 ca         1 Z48      -0.084000
     12 C12          7.4250     0.6210     1.4340 ca         1 Z48      -0.116500
     13 N13          3.5540    -0.0010    -1.1600 nb         1 Z48      -0.677000
     14 C14          2.2240    -0.0060    -1.2020 ca         1 Z48       0.571800
     15 C15          1.5110    -0.0120    -2.5010 cc         1 Z48      -0.254500
     16 C16          0.3190    -0.6440    -2.7770 cd         1 Z48      -0.312300
     17 N17          0.0030    -0.4130    -4.0660 na         1 Z48       0.434900
     18 C19          0.9830     0.3670    -4.6360 cd         1 Z48      -0.421900
     19 C20          1.9250     0.6330    -3.6850 cc         1 Z48      -0.025000
     20 C21          1.0080     0.8370    -6.0270 c          1 Z48       0.638700
     21 O22          1.9320     1.5240    -6.4200 o          1 Z48      -0.644100
     22 N23          0.0080     0.5070    -6.8670 ns         1 Z48      -0.201900
     23 C24          0.0340     0.9760    -8.2550 c3         1 Z48       0.081000
     24 C26         -0.5660     2.3820    -8.3290 c3         1 Z48       0.207400
     25 O27         -1.9490     2.3300    -7.9730 oh         1 Z48      -0.601800
     26 C28         -0.7750     0.0400    -9.1160 ca         1 Z48      -0.106300
     27 C29         -1.9680    -0.4750    -8.6470 ca         1 Z48      -0.086500
     28 C30         -2.7100    -1.3340    -9.4360 ca         1 Z48      -0.099500
     29 C31         -2.2580    -1.6770   -10.6970 ca         1 Z48      -0.096000
     30 C32         -1.0640    -1.1610   -11.1670 ca         1 Z48      -0.099500
     31 C33         -0.3250    -0.2990   -10.3790 ca         1 Z48      -0.086500
     32 H1          -0.3610     0.6770    -0.7640 hc         1 Z48       0.007700
     33 H1A         -0.3610     0.3240     0.9690 hc         1 Z48       0.007700
     34 H1B         -0.3610    -1.0010    -0.2040 hc         1 Z48       0.007700
     35 H3           1.6910     0.0000     2.1360 h4         1 Z48      -0.016900
     36 HN6          6.0830     0.0590    -0.8520 hn         1 Z48       0.294800
     37 H8           4.9040    -1.5580     2.0390 ha         1 Z48       0.115500
     38 H9           6.1270    -1.7600     4.1710 ha         1 Z48       0.101000
     39 H10          8.1710    -0.4380     4.5500 ha         1 Z48       0.101000
     40 H11          9.0030     1.0840     2.8020 ha         1 Z48       0.101000
     41 H12          7.7900     1.2910     0.6660 ha         1 Z48       0.115500
     42 H16         -0.2660    -1.2280    -2.0760 h4         1 Z48       0.159000
     43 H20          2.8240     1.2220    -3.8160 ha         1 Z48       0.149000
     44 HN23        -0.7280    -0.0960    -6.5560 hn         1 Z48       0.173500
     45 H24          1.0570     1.0000    -8.6100 h1         1 Z48       0.064700
     46 H26         -0.0410     3.0350    -7.6430 h1         1 Z48       0.003200
     47 H26A        -0.4670     2.7640    -9.3380 h1         1 Z48       0.003200
     48 HO27        -2.3080     3.2020    -7.9780 ho         1 Z48       0.394000
     49 H29         -2.3230    -0.2060    -7.6590 ha         1 Z48       0.108500
     50 H30         -3.6460    -1.7370    -9.0670 ha         1 Z48       0.103000
     51 H31         -2.8380    -2.3510   -11.3160 ha         1 Z48       0.103000
     52 H32         -0.7110    -1.4280   -12.1560 ha         1 Z48       0.103000
     53 H33          0.6100     0.1050   -10.7480 ha         1 Z48       0.108500
     54 HN17        -0.8120    -0.7560    -4.5340 hn         1 Z48       0.106700
@<TRIPOS>BOND
     1     1     2 1   
     2     1    32 1   
     3     1    33 1   
     4     1    34 1   
     5     2     3 ar  
     6     2    14 ar  
     7     3     4 ar  
     8     3    35 1   
     9     4     5 ar  
    10     5     6 1   
    11     5    13 ar  
    12     6     7 1   
    13     6    36 1   
    14     7     8 ar  
    15     7    12 ar  
    16     8     9 ar  
    17     8    37 1   
    18     9    10 ar  
    19     9    38 1   
    20    10    11 ar  
    21    10    39 1   
    22    11    12 ar  
    23    11    40 1   
    24    12    41 1   
    25    13    14 ar  
    26    14    15 1   
    27    15    16 2   
    28    15    19 1   
    29    16    17 1   
    30    16    42 1   
    31    17    18 1   
    32    17    54 1   
    33    18    19 2   
    34    18    20 1   
    35    19    43 1   
    36    20    21 2   
    37    20    22 1   
    38    22    23 1   
    39    22    44 1   
    40    23    24 1   
    41    23    26 1   
    42    23    45 1   
    43    24    25 1   
    44    24    46 1   
    45    24    47 1   
    46    25    48 1   
    47    26    27 ar  
    48    26    31 ar  
    49    27    28 ar  
    50    27    49 1   
    51    28    29 ar  
    52    28    50 1   
    53    29    30 ar  
    54    29    51 1   
    55    30    31 ar  
    56    30    52 1   
    57    31    53 1   
@<TRIPOS>SUBSTRUCTURE
     1 Z48         1 TEMP              0 ****  ****    0 ROOT
