@<TRIPOS>MOLECULE
molecule
   35    36     1     0     0
SMALL
bcc


@<TRIPOS>ATOM
      1 C1           0.0000     0.0000     0.0000 ca         1 Z57       0.141100
      2 O1          -0.6800     0.0000    -1.1780 oh         1 Z57      -0.486100
      3 C2           1.3870     0.0000     0.0000 ca         1 Z57      -0.080300
      4 C3           2.0770     0.0000     1.1970 ca         1 Z57      -0.101000
      5 C4           1.3850    -0.0010     2.3980 ca         1 Z57       0.097100
      6 O4           2.0650    -0.0010     3.5750 oh         1 Z57      -0.507100
      7 C5          -0.0030    -0.0000     2.3980 ca         1 Z57      -0.012900
      8 Br5         -0.9480    -0.0010     4.0360 br         1 Z57      -0.078100
      9 C6          -0.6930     0.0050     1.2020 ca         1 Z57      -0.170000
     10 C1'          2.1400     0.0010    -1.3050 c3         1 Z57       0.200400
     11 C2'          2.2870     1.4390    -1.8090 c3         1 Z57       0.113100
     12 O2'          0.9940     1.9910    -2.0610 oh         1 Z57      -0.583800
     13 C3'          3.1040     1.4370    -3.1040 c3         1 Z57       0.101100
     14 O3'          3.3100     2.7810    -3.5430 oh         1 Z57      -0.609800
     15 C4'          4.4590     0.7730    -2.8380 c3         1 Z57       0.103100
     16 O4'          5.2030     0.7000    -4.0560 oh         1 Z57      -0.602800
     17 C5'          4.2280    -0.6390    -2.2940 c3         1 Z57       0.147100
     18 O5'          3.4360    -0.5680    -1.1080 os         1 Z57      -0.401600
     19 C6'          5.5760    -1.2880    -1.9700 c3         1 Z57       0.151400
     20 O6'          5.3680    -2.6450    -1.5720 oh         1 Z57      -0.598800
     21 HO1         -1.3960    -0.6120    -1.1280 ho         1 Z57       0.419000
     22 H3           3.1610    -0.0000     1.1960 ha         1 Z57       0.166000
     23 HO4          2.2500     0.8870     3.8320 ho         1 Z57       0.421000
     24 H6          -1.7770     0.0050     1.2020 ha         1 Z57       0.151000
     25 H1'          1.6000    -0.5830    -2.0390 h1         1 Z57       0.072700
     26 H2'          2.8000     2.0320    -1.0620 h1         1 Z57       0.052700
     27 HO2'         1.0200     2.9250    -1.9320 ho         1 Z57       0.410000
     28 H3'          2.5730     0.8790    -3.8660 h1         1 Z57       0.063700
     29 HO3'         2.9590     2.8850    -4.4120 ho         1 Z57       0.415000
     30 H4'          5.0080     1.3550    -2.1080 h1         1 Z57       0.054700
     31 HO4'         5.8500     1.3860    -4.0710 ho         1 Z57       0.413000
     32 H5'          3.7080    -1.2300    -3.0380 h1         1 Z57       0.065700
     33 H6'          6.0540    -0.7450    -1.1640 h1         1 Z57       0.035700
     34 H6'A         6.2100    -1.2620    -2.8480 h1         1 Z57       0.035700
     35 HO6'         6.2010    -3.0830    -1.5030 ho         1 Z57       0.403000
@<TRIPOS>BOND
     1     3     1 ar
     2     1     2 1
     3     1     9 ar
     4     2    21 1
     5    10     3 1
     6     4     3 ar
     7     4     5 ar
     8     4    22 1
     9     6     5 1
    10     5     7 ar
    11     6    23 1
    12     7     9 ar
    13     7     8 1
    14     9    24 1
    15    11    10 1
    16    10    18 1
    17    10    25 1
    18    13    11 1
    19    12    11 1
    20    11    26 1
    21    12    27 1
    22    14    13 1
    23    13    15 1
    24    13    28 1
    25    14    29 1
    26    16    15 1
    27    15    17 1
    28    15    30 1
    29    16    31 1
    30    17    19 1
    31    17    18 1
    32    17    32 1
    33    20    19 1
    34    19    33 1
    35    19    34 1
    36    20    35 1
@<TRIPOS>SUBSTRUCTURE
     1 Z57         1 TEMP              0 ****  ****    0 ROOT
