@<TRIPOS>MOLECULE
Z57
   35    36     1     0     0
SMALL
bcc


@<TRIPOS>ATOM
      1 C1          0.1160   -0.1840   -0.0130 ca        1 Z57      0.084100
      2 O1         -0.5510   -0.2390   -1.2200 oh        1 Z57     -0.506100
      3 C2          1.5180   -0.0230   -0.0670 ca        1 Z57     -0.074300
      4 C3          2.2260    0.0670    1.1240 ca        1 Z57     -0.097000
      5 C4          1.5540   -0.0050    2.3610 ca        1 Z57      0.129100
      6 O4          2.3650    0.0990    3.4640 oh        1 Z57     -0.485100
      7 C5          0.1610   -0.1690    2.4080 ca        1 Z57     -0.076900
      8 BR5        -0.7810   -0.2760    4.0240 br        1 Z57     -0.073100
      9 C6         -0.5540   -0.2580    1.2090 ca        1 Z57     -0.150000
     10 C1'         2.2200    0.0300   -1.3930 c3        1 Z57      0.165400
     11 C2'         2.3670    1.4800   -1.8970 c3        1 Z57      0.088100
     12 O2'         1.1280    2.0400   -2.3030 oh        1 Z57     -0.606800
     13 C3'         3.2550    1.5240   -3.1530 c3        1 Z57      0.106100
     14 O3'         3.5900    2.8610   -3.4860 oh        1 Z57     -0.607800
     15 C4'         4.5830    0.7950   -2.8980 c3        1 Z57      0.123100
     16 O4'         5.3220    0.6710   -4.1000 oh        1 Z57     -0.595800
     17 C5'         4.2870   -0.6240   -2.3940 c3        1 Z57      0.099100
     18 O5'         3.5100   -0.5580   -1.1960 os        1 Z57     -0.420600
     19 C6'         5.5780   -1.3530   -2.0100 c3        1 Z57      0.140400
     20 O6'         5.3270   -2.7030   -1.6870 oh        1 Z57     -0.594800
     21 HO1        -1.4700   -0.4880   -1.0450 ho        1 Z57      0.429000
     22 H3          3.3220    0.1800    1.1150 ha        1 Z57      0.177000
     23 HO4         1.8150    0.0260    4.2610 ho        1 Z57      0.432000
     24 H6         -1.6480   -0.3900    1.2240 ha        1 Z57      0.153000
     25 H1'         1.6440   -0.5700   -2.1560 h1        1 Z57      0.080700
     26 H2'         2.8150    2.1230   -1.0890 h1        1 Z57      0.065700
     27 HO2'        0.4510    1.7420   -1.6810 ho        1 Z57      0.425000
     28 H3'         2.7110    1.0480   -4.0160 h1        1 Z57      0.064700
     29 HO3'        2.7550    3.3410   -3.5710 ho        1 Z57      0.428000
     30 H4'         5.1860    1.3640   -2.1370 h1        1 Z57      0.061700
     31 HO4'        5.4000    1.5640   -4.4640 ho        1 Z57      0.425000
     32 H5'         3.7300   -1.2070   -3.1780 h1        1 Z57      0.072700
     33 H6'         6.0730   -0.8290   -1.1510 h1        1 Z57      0.064700
     34 H6'A        6.2610   -1.3770   -2.9010 h1        1 Z57      0.064700
     35 HO6'        4.7090   -2.7060   -0.9440 ho        1 Z57      0.410000
@<TRIPOS>BOND
     1    1    2 1   
     2    1    3 ar  
     3    1    9 ar  
     4    2   21 1   
     5    3    4 ar  
     6    3   10 1   
     7    4    5 ar  
     8    4   22 1   
     9    5    6 1   
    10    5    7 ar  
    11    6   23 1   
    12    7    8 1   
    13    7    9 ar  
    14    9   24 1   
    15   10   11 1   
    16   10   18 1   
    17   10   25 1   
    18   11   12 1   
    19   11   13 1   
    20   11   26 1   
    21   12   27 1   
    22   13   14 1   
    23   13   15 1   
    24   13   28 1   
    25   14   29 1   
    26   15   16 1   
    27   15   17 1   
    28   15   30 1   
    29   16   31 1   
    30   17   18 1   
    31   17   19 1   
    32   17   32 1   
    33   19   20 1   
    34   19   33 1   
    35   19   34 1   
    36   20   35 1   
@<TRIPOS>SUBSTRUCTURE
     1 Z57         1 TEMP              0 ****  ****    0 ROOT
