@<TRIPOS>MOLECULE
Z59
   48    50     1     0     0
SMALL
bcc


@<TRIPOS>ATOM
      1 C1           0.0000     0.0000     0.0000 c          1 Z59       0.575100
      2 N2          -0.6740     1.0550     0.4970 n          1 Z59      -0.170800
      3 C3           1.5070     0.0000     0.0000 c3         1 Z59       0.127100
      4 C4           2.0160     0.0000     1.4430 c3         1 Z59       0.112100
      5 C5          -2.1370     1.1850     0.5640 c3         1 Z59       0.100000
      6 C6           3.5190    -0.1240     1.4450 c          1 Z59       0.541100
      7 C7          -2.7090     0.0920     1.4310 ca         1 Z59      -0.103300
      8 N8           4.2760     0.8600     0.9230 ns         1 Z59      -0.205900
      9 S9           6.6980     2.1450    -1.4250 ss         1 Z59      -0.260800
     10 C10          6.3430     1.9630     0.2880 cc         1 Z59      -0.027400
     11 O11         -0.6070    -0.9520    -0.4440 o          1 Z59      -0.595100
     12 C12         -2.0620    -0.2760     2.5960 ca         1 Z59      -0.081000
     13 C13          7.3180     3.7690    -1.1550 cc         1 Z59       0.016900
     14 O14          4.0450    -1.1090     1.9180 o          1 Z59      -0.615100
     15 C15          6.6910     3.0760     0.9370 cd         1 Z59      -0.109000
     16 C16          7.2280     4.0720     0.1410 cd         1 Z59      -0.132000
     17 O17          1.9830    -1.1670    -0.6730 oh         1 Z59      -0.532800
     18 C18          5.7360     0.7390     0.9250 c3         1 Z59       0.153300
     19 O19          1.4460    -1.1030     2.1490 oh         1 Z59      -0.540800
     20 C20         -0.0660     2.2700     1.0730 c3         1 Z59       0.039000
     21 C21         -2.5850    -1.2780     3.3910 ca         1 Z59      -0.097000
     22 C23         -2.4480     2.5630     1.1830 c3         1 Z59      -0.033400
     23 C24         -3.8830    -0.5370     1.0650 ca         1 Z59      -0.081000
     24 C25         -1.1470     3.3680     0.9130 c3         1 Z59      -0.032400
     25 C26         -4.4080    -1.5400     1.8600 ca         1 Z59      -0.097000
     26 C27         -3.7570    -1.9110     3.0220 ca         1 Z59      -0.096000
     27 H3           1.8680     0.8840    -0.5110 h1         1 Z59       0.004700
     28 H4           1.7300     0.9260     1.9270 h1         1 Z59       0.015700
     29 H5          -2.5560     1.1280    -0.4330 h1         1 Z59       0.038700
     30 HN8          3.8440     1.6890     0.5670 hn         1 Z59       0.174500
     31 H12         -1.1430     0.2210     2.8850 ha         1 Z59       0.102500
     32 H13          7.7110     4.4230    -1.9240 h4         1 Z59       0.150000
     33 H15          6.5620     3.1910     2.0070 ha         1 Z59       0.123000
     34 H16          7.5520     5.0260     0.5400 ha         1 Z59       0.123000
     35 HO17         1.9150    -1.0410    -1.6050 ho         1 Z59       0.392000
     36 H18          6.0900     0.6490     1.9450 h1         1 Z59       0.036200
     37 H18A         6.0270    -0.1410     0.3630 h1         1 Z59       0.036200
     38 HO19         1.8180    -1.1490     3.0140 ho         1 Z59       0.401000
     39 H20          0.8270     2.5390     0.5220 h1         1 Z59       0.014700
     40 H20A         0.1610     2.1160     2.1200 h1         1 Z59       0.014700
     41 H21         -2.0770    -1.5680     4.3020 ha         1 Z59       0.101000
     42 H23         -3.2920     3.0240     0.6850 hc         1 Z59       0.030200
     43 H23A        -2.6260     2.4720     2.2480 hc         1 Z59       0.030200
     44 H24         -4.3930    -0.2460     0.1550 ha         1 Z59       0.102500
     45 H25         -1.1440     3.7700    -0.0920 hc         1 Z59       0.025200
     46 H25A        -1.0160     4.1490     1.6530 hc         1 Z59       0.025200
     47 H26         -5.3270    -2.0340     1.5720 ha         1 Z59       0.101000
     48 H27         -4.1680    -2.6970     3.6450 ha         1 Z59       0.100000
@<TRIPOS>BOND
     1     1     2 1   
     2     1     3 1   
     3     1    11 2   
     4     2     5 1   
     5     2    20 1   
     6     3     4 1   
     7     3    17 1   
     8     3    27 1   
     9     4     6 1   
    10     4    19 1   
    11     4    28 1   
    12     5     7 1   
    13     5    22 1   
    14     5    29 1   
    15     6     8 1   
    16     6    14 2   
    17     7    12 ar  
    18     7    23 ar  
    19     8    18 1   
    20     8    30 1   
    21     9    10 1   
    22     9    13 1   
    23    10    15 2   
    24    10    18 1   
    25    12    21 ar  
    26    12    31 1   
    27    13    16 2   
    28    13    32 1   
    29    15    16 1   
    30    15    33 1   
    31    16    34 1   
    32    17    35 1   
    33    18    36 1   
    34    18    37 1   
    35    19    38 1   
    36    20    24 1   
    37    20    39 1   
    38    20    40 1   
    39    21    26 ar  
    40    21    41 1   
    41    22    24 1   
    42    22    42 1   
    43    22    43 1   
    44    23    25 ar  
    45    23    44 1   
    46    24    45 1   
    47    24    46 1   
    48    25    26 ar  
    49    25    47 1   
    50    26    48 1   
@<TRIPOS>SUBSTRUCTURE
     1 Z59         1 TEMP              0 ****  ****    0 ROOT
