@<TRIPOS>MOLECULE
Z5K
   40    40     1     0     0
SMALL
bcc


@<TRIPOS>ATOM
      1 O01          0.0000     0.0000     0.0000 o          1 Z5K      -0.583300
      2 S02          1.4210     0.0000     0.0000 sy         1 Z5K       1.044200
      3 N03          1.8890     0.0000     1.5880 n7         1 Z5K      -0.582100
      4 C04          3.3130    -0.0320     1.9330 c3         1 Z5K       0.214800
      5 C05          3.4910     0.3480     3.4040 c3         1 Z5K       0.137800
      6 N06          4.9180     0.3160     3.7490 n3         1 Z5K      -0.539600
      7 C07          5.6570     1.3590     3.0270 c3         1 Z5K       0.141800
      8 C08          7.1560     1.0570     3.0890 c3         1 Z5K       0.000400
      9 C09          5.1120     0.4400     5.2000 c3         1 Z5K       0.141800
     10 C10          4.7650    -0.8870     5.8770 c3         1 Z5K       0.000400
     11 C11          1.9190    -1.5430    -0.6910 ca         1 Z5K      -0.170500
     12 C12          1.0620    -2.6270    -0.6520 ca         1 Z5K       0.065000
     13 C13          1.4520    -3.8360    -1.1930 ca         1 Z5K      -0.243300
     14 C14          0.5170    -5.0180    -1.1500 c3         1 Z5K       0.643200
     15 F15         -0.2770    -5.0260    -2.3010 f          1 Z5K      -0.205967
     16 F16          1.2630    -6.2000    -1.0900 f          1 Z5K      -0.205967
     17 F17         -0.3010    -4.9250    -0.0190 f          1 Z5K      -0.205967
     18 C18          2.7000    -3.9630    -1.7750 ca         1 Z5K       0.010000
     19 C19          3.5570    -2.8800    -1.8150 ca         1 Z5K      -0.138000
     20 C20          3.1650    -1.6680    -1.2770 ca         1 Z5K       0.038000
     21 O21          2.1990     0.9980    -0.6480 o          1 Z5K      -0.583300
     22 H03          1.1990     0.0220     2.3120 hn         1 Z5K       0.352800
     23 H041         3.7020    -1.0300     1.7680 h1         1 Z5K       0.023200
     24 H042         3.8510     0.6720     1.3110 h1         1 Z5K       0.023200
     25 H051         3.1010     1.3450     3.5680 h1         1 Z5K       0.015700
     26 H052         2.9530    -0.3570     4.0260 h1         1 Z5K       0.015700
     27 H071         5.4630     2.3210     3.4850 h1         1 Z5K       0.012950
     28 H072         5.3350     1.3800     1.9930 h1         1 Z5K       0.012950
     29 H091         4.4660     1.2210     5.5840 h1         1 Z5K       0.012950
     30 H092         6.1450     0.6920     5.4060 h1         1 Z5K       0.012950
     31 H081         7.6360     1.4250     2.1900 hc         1 Z5K       0.007033
     32 H082         7.3060    -0.0130     3.1660 hc         1 Z5K       0.007033
     33 H083         7.5880     1.5460     3.9540 hc         1 Z5K       0.007033
     34 H101         3.7260    -0.8760     6.1830 hc         1 Z5K       0.007033
     35 H102         4.9280    -1.7010     5.1810 hc         1 Z5K       0.007033
     36 H103         5.3960    -1.0240     6.7470 hc         1 Z5K       0.007033
     37 H12          0.0760    -2.5220    -0.2140 ha         1 Z5K       0.137000
     38 H20          3.8370    -0.8190    -1.3080 ha         1 Z5K       0.126000
     39 H18          3.0060    -4.9120    -2.1980 ha         1 Z5K       0.117000
     40 H19          4.5340    -2.9790    -2.2720 ha         1 Z5K       0.117000
@<TRIPOS>BOND
     1     1     2 2   
     2     2     3 1   
     3     2    11 1   
     4     2    21 2   
     5     3     4 1   
     6     3    22 1   
     7     4     5 1   
     8     4    23 1   
     9     4    24 1   
    10     5     6 1   
    11     5    25 1   
    12     5    26 1   
    13     6     7 1   
    14     6     9 1   
    15     7     8 1   
    16     7    27 1   
    17     7    28 1   
    18     8    31 1   
    19     8    32 1   
    20     8    33 1   
    21     9    10 1   
    22     9    29 1   
    23     9    30 1   
    24    10    34 1   
    25    10    35 1   
    26    10    36 1   
    27    11    12 ar  
    28    11    20 ar  
    29    12    13 ar  
    30    12    37 1   
    31    13    14 1   
    32    13    18 ar  
    33    14    15 1   
    34    14    16 1   
    35    14    17 1   
    36    18    19 ar  
    37    18    39 1   
    38    19    20 ar  
    39    19    40 1   
    40    20    38 1   
@<TRIPOS>SUBSTRUCTURE
     1 Z5K         1 TEMP              0 ****  ****    0 ROOT
