@<TRIPOS>MOLECULE
molecule
   40    40     1     0     0
SMALL
bcc


@<TRIPOS>ATOM
      1 O01          0.0000     0.0000     0.0000 o          1 Z5K      -0.631300
      2 S02          1.4210     0.0000     0.0000 sy         1 Z5K       1.425200
      3 N03          1.8890     0.0000     1.5880 n7         1 Z5K      -0.916100
      4 C04          3.3130    -0.0320     1.9330 c3         1 Z5K       0.228800
      5 C05          3.4910     0.3480     3.4040 c3         1 Z5K       0.153800
      6 N06          4.9180     0.3160     3.7490 n3         1 Z5K      -0.732600
      7 C07          5.6570     1.3590     3.0270 c3         1 Z5K       0.155800
      8 C08          7.1560     1.0570     3.0890 c3         1 Z5K      -0.093600
      9 C09          5.1120     0.4400     5.2000 c3         1 Z5K       0.155800
     10 C10          4.7650    -0.8870     5.8770 c3         1 Z5K      -0.093600
     11 C11          1.9190    -1.5430    -0.6910 ca         1 Z5K      -0.320500
     12 C12          1.0620    -2.6270    -0.6520 ca         1 Z5K       0.020000
     13 C13          1.4520    -3.8360    -1.1930 ca         1 Z5K      -0.203300
     14 C14          0.5170    -5.0180    -1.1500 c3         1 Z5K       0.676200
     15 F15         -0.2770    -5.0260    -2.3010 f          1 Z5K      -0.220967
     16 F16          1.2630    -6.2000    -1.0900 f          1 Z5K      -0.220967
     17 F17         -0.3010    -4.9250    -0.0190 f          1 Z5K      -0.220967
     18 C18          2.7000    -3.9630    -1.7750 ca         1 Z5K      -0.030000
     19 C19          3.5570    -2.8800    -1.8150 ca         1 Z5K      -0.155000
     20 C20          3.1650    -1.6680    -1.2770 ca         1 Z5K      -0.003000
     21 O21          2.1990     0.9980    -0.6480 o          1 Z5K      -0.631300
     22 H03          1.1990     0.0220     2.3120 hn         1 Z5K       0.456800
     23 H041         3.7020    -1.0300     1.7680 h1         1 Z5K       0.054700
     24 H042         3.8510     0.6720     1.3110 h1         1 Z5K       0.054700
     25 H051         3.1010     1.3450     3.5680 h1         1 Z5K       0.041700
     26 H052         2.9530    -0.3570     4.0260 h1         1 Z5K       0.041700
     27 H071         5.4630     2.3210     3.4850 h1         1 Z5K       0.036200
     28 H072         5.3350     1.3800     1.9930 h1         1 Z5K       0.036200
     29 H091         4.4660     1.2210     5.5840 h1         1 Z5K       0.036200
     30 H092         6.1450     0.6920     5.4060 h1         1 Z5K       0.036200
     31 H081         7.6360     1.4250     2.1900 hc         1 Z5K       0.040033
     32 H082         7.3060    -0.0130     3.1660 hc         1 Z5K       0.040033
     33 H083         7.5880     1.5460     3.9540 hc         1 Z5K       0.040033
     34 H101         3.7260    -0.8760     6.1830 hc         1 Z5K       0.040033
     35 H102         4.9280    -1.7010     5.1810 hc         1 Z5K       0.040033
     36 H103         5.3960    -1.0240     6.7470 hc         1 Z5K       0.040033
     37 H12          0.0760    -2.5220    -0.2140 ha         1 Z5K       0.167000
     38 H20          3.8370    -0.8190    -1.3080 ha         1 Z5K       0.156000
     39 H18          3.0060    -4.9120    -2.1980 ha         1 Z5K       0.151000
     40 H19          4.5340    -2.9790    -2.2720 ha         1 Z5K       0.146000
@<TRIPOS>BOND
     1     1     2 2
     2     2     3 1
     3     2    11 1
     4     2    21 2
     5     3     4 1
     6     4     5 1
     7     5     6 1
     8     6     7 1
     9     6     9 1
    10     7     8 1
    11     9    10 1
    12    11    12 ar
    13    11    20 ar
    14    12    13 ar
    15    13    14 1
    16    13    18 ar
    17    14    15 1
    18    14    16 1
    19    14    17 1
    20    18    19 ar
    21    19    20 ar
    22     3    22 1
    23     4    23 1
    24     4    24 1
    25     5    25 1
    26     5    26 1
    27     7    27 1
    28     7    28 1
    29     9    29 1
    30     9    30 1
    31     8    31 1
    32     8    32 1
    33     8    33 1
    34    10    34 1
    35    10    35 1
    36    10    36 1
    37    12    37 1
    38    20    38 1
    39    18    39 1
    40    19    40 1
@<TRIPOS>SUBSTRUCTURE
     1 Z5K         1 TEMP              0 ****  ****    0 ROOT
