@<TRIPOS>MOLECULE
molecule
   25    26     1     0     0
SMALL
bcc


@<TRIPOS>ATOM
      1 N13          0.0000     0.0000     0.0000 nz         1 Z5P      -0.796600
      2 C10          2.3980     0.4360     2.2820 ca         1 Z5P      -0.077000
      3 N4           1.5700    -2.7640     0.6690 na         1 Z5P       0.144300
      4 C9           2.8550     0.0000     3.5120 ca         1 Z5P      -0.128000
      5 C8           2.8850    -1.3520     3.8010 ca         1 Z5P      -0.055000
      6 C7           2.4600    -2.2710     2.8620 ca         1 Z5P      -0.146000
      7 C6           2.0020    -1.8350     1.6250 ca         1 Z5P       0.064800
      8 C3           1.5470    -4.1090     0.8200 cc         1 Z5P      -0.093300
      9 C12          1.4690     0.0000     0.0000 c3         1 Z5P       0.161100
     10 C2           1.0640    -4.6430    -0.3260 cc         1 Z5P      -0.345300
     11 C1           0.7820    -3.5920    -1.2050 cc         1 Z5P       0.386200
     12 C11          1.9720    -0.4770     1.3380 ca         1 Z5P      -0.198300
     13 N5           1.0790    -2.4660    -0.6090 nd         1 Z5P      -0.625800
     14 H9           3.1890     0.7190     4.2500 ha         1 Z5P       0.163000
     15 H8           3.2440    -1.6910     4.7660 ha         1 Z5P       0.165000
     16 H10          2.3750     1.4960     2.0580 ha         1 Z5P       0.146000
     17 H7           2.4850    -3.3300     3.0890 ha         1 Z5P       0.161000
     18 H2           0.9590    -5.6990    -0.5420 ha         1 Z5P       0.183000
     19 H1           0.4360    -3.7620    -2.2180 h4         1 Z5P       0.070100
     20 H3           1.7780    -4.9060     1.5160 h4         1 Z5P       0.215000
     21 H121         1.8300    -0.6710    -0.7700 hx         1 Z5P       0.125700
     22 H122         1.8300     1.0020    -0.1960 hx         1 Z5P       0.125700
     23 H131        -0.3340     0.9230     0.1960 hn         1 Z5P       0.452133
     24 H132        -0.3340    -0.6310     0.7010 hn         1 Z5P       0.452133
     25 H133        -0.3340    -0.2920    -0.8970 hn         1 Z5P       0.452133
@<TRIPOS>BOND
     1     4     5 ar
     2     4     2 ar
     3     5     6 ar
     4     2    12 ar
     5     6     7 ar
     6    10    11 1
     7    10     8 2
     8    11    13 2
     9     8     3 1
    10    12     7 ar
    11    12     9 1
    12     7     3 1
    13     9     1 1
    14    13     3 1
    15     4    14 1
    16     5    15 1
    17     2    16 1
    18     6    17 1
    19    10    18 1
    20    11    19 1
    21     8    20 1
    22     9    21 1
    23     9    22 1
    24     1    23 1
    25     1    24 1
    26    25     1 1
@<TRIPOS>SUBSTRUCTURE
     1 Z5P         1 TEMP              0 ****  ****    0 ROOT
