@<TRIPOS>MOLECULE
Z5P
   25    26     1     0     0
SMALL
bcc


@<TRIPOS>ATOM
      1 N13          0.0000     0.0000     0.0000 nz         1 Z5P       0.089400
      2 C10          2.3980     0.4360     2.2820 ca         1 Z5P      -0.048000
      3 N4           1.5700    -2.7640     0.6690 na         1 Z5P       0.624300
      4 C9           2.8550     0.0000     3.5120 ca         1 Z5P      -0.082000
      5 C8           2.8850    -1.3520     3.8010 ca         1 Z5P      -0.026000
      6 C7           2.4600    -2.2710     2.8620 ca         1 Z5P      -0.101000
      7 C6           2.0020    -1.8350     1.6250 ca         1 Z5P      -0.118200
      8 C3           1.5470    -4.1090     0.8200 cc         1 Z5P      -0.235300
      9 C12          1.4690     0.0000     0.0000 c3         1 Z5P       0.001100
     10 C2           1.0640    -4.6430    -0.3260 cd         1 Z5P      -0.325300
     11 C1           0.7820    -3.5920    -1.2050 cd         1 Z5P       0.460200
     12 C11          1.9720    -0.4770     1.3380 ca         1 Z5P      -0.189300
     13 N5           1.0790    -2.4660    -0.6090 nc         1 Z5P      -0.788800
     14 H9           3.1890     0.7190     4.2500 ha         1 Z5P       0.129000
     15 H8           3.2440    -1.6910     4.7660 ha         1 Z5P       0.127000
     16 H10          2.3750     1.4960     2.0580 ha         1 Z5P       0.116000
     17 H7           2.4850    -3.3300     3.0890 ha         1 Z5P       0.132000
     18 H2           0.9590    -5.6990    -0.5420 ha         1 Z5P       0.157000
     19 H1           0.4360    -3.7620    -2.2180 h4         1 Z5P       0.019100
     20 H3           1.7780    -4.9060     1.5160 h4         1 Z5P       0.186000
     21 H121         1.8300    -0.6710    -0.7700 hx         1 Z5P       0.105700
     22 H122         1.8300     1.0020    -0.1960 hx         1 Z5P       0.105700
     23 H131        -0.3340     0.9230     0.1960 hn         1 Z5P       0.220467
     24 H132        -0.3340    -0.6310     0.7010 hn         1 Z5P       0.220467
     25 H133        -0.3340    -0.2920    -0.8970 hn         1 Z5P       0.220467
@<TRIPOS>BOND
     1     1     9 1   
     2     1    23 1   
     3     1    24 1   
     4     1    25 1   
     5     2     4 ar  
     6     2    12 ar  
     7     2    16 1   
     8     3     7 1   
     9     3     8 1   
    10     3    13 1   
    11     4     5 ar  
    12     4    14 1   
    13     5     6 ar  
    14     5    15 1   
    15     6     7 ar  
    16     6    17 1   
    17     7    12 ar  
    18     8    10 2   
    19     8    20 1   
    20     9    12 1   
    21     9    21 1   
    22     9    22 1   
    23    10    11 1   
    24    10    18 1   
    25    11    13 2   
    26    11    19 1   
@<TRIPOS>SUBSTRUCTURE
     1 Z5P         1 TEMP              0 ****  ****    0 ROOT
