@<TRIPOS>MOLECULE
Z60
   28    29     1     0     0
SMALL
bcc


@<TRIPOS>ATOM
      1 Cl           0.0000     0.0000     0.0000 cl         1 Z60       0.054600
      2 N1           8.1040    -0.0020    -0.6770 nc         1 Z60      -0.711000
      3 C2           7.5820    -0.0020     0.5300 cc         1 Z60       0.613200
      4 N3           8.3470    -0.0030     1.6860 nv         1 Z60      -0.619500
      5 C4           6.2030    -0.0010     0.5350 cd         1 Z60      -0.299000
      6 C6           3.9150     0.0000     1.5300 cc         1 Z60      -0.083700
      7 O7           5.8740    -0.0020     2.7930 o          1 Z60      -0.573100
      8 S8           5.6580     0.0000    -1.1400 ss         1 Z60      -0.300300
      9 C9           7.2790    -0.0010    -1.6840 cd         1 Z60       0.595300
     10 N10          7.6600     0.0010    -3.0070 nu         1 Z60      -0.435900
     11 C11          9.0820    -0.0000    -3.3600 c3         1 Z60       0.200000
     12 C12          9.2280     0.0020    -4.8600 c2         1 Z60      -0.193200
     13 C13          9.9390     0.9300    -5.4480 c2         1 Z60      -0.123000
     14 S14          3.0460     0.0000     0.0000 ss         1 Z60      -0.183800
     15 C15          1.5410     0.0000     0.8010 cc         1 Z60       0.029300
     16 C16          1.7040     0.0000     2.1300 cd         1 Z60      -0.147000
     17 C17          3.0130    -0.0050     2.5550 cd         1 Z60      -0.041000
     18 H1N3         8.6420    -0.8700     2.0910 hn         1 Z60       0.282800
     19 H2N3         8.6430     0.8640     2.0910 hn         1 Z60       0.282800
     20 HN10         6.9660    -0.0010    -3.7270 hn         1 Z60       0.299800
     21 H111         9.5560     0.8830    -2.9500 h1         1 Z60       0.033700
     22 H211         9.5550    -0.8860    -2.9520 h1         1 Z60       0.033700
     23 H112         8.7440    -0.7660    -5.4510 ha         1 Z60       0.108000
     24 H113        10.4230     1.6980    -4.8560 ha         1 Z60       0.088000
     25 H213        10.0440     0.9310    -6.5260 ha         1 Z60       0.088000
     26 H16          0.8690    -0.0020     2.8190 ha         1 Z60       0.131000
     27 H17          3.3000    -0.0050     3.5990 ha         1 Z60       0.138000
     28 C5           5.3750    -0.0010     1.6790 c          1 Z60       0.733300
@<TRIPOS>BOND
     1     1    15 1   
     2     2     3 1   
     3     2     9 2   
     4     3     4 1   
     5     3     5 2   
     6     4    18 1   
     7     4    19 1   
     8     5     8 1   
     9     5    28 1   
    10     6    14 1   
    11     6    17 2   
    12     6    28 1   
    13     7    28 2   
    14     8     9 1   
    15     9    10 1   
    16    10    11 1   
    17    10    20 1   
    18    11    12 1   
    19    11    21 1   
    20    11    22 1   
    21    12    13 2   
    22    12    23 1   
    23    13    24 1   
    24    13    25 1   
    25    14    15 1   
    26    15    16 2   
    27    16    17 1   
    28    16    26 1   
    29    17    27 1   
@<TRIPOS>SUBSTRUCTURE
     1 Z60         1 TEMP              0 ****  ****    0 ROOT
