@<TRIPOS>MOLECULE
molecule
   33    34     1     0     0
SMALL
bcc


@<TRIPOS>ATOM
      1 N1           0.0000     0.0000     0.0000 nc         1 Z62      -0.811000
      2 C2           1.3120     0.0000     0.0000 cc         1 Z62       0.780200
      3 N3           2.0710    -0.0000    -1.1590 nv         1 Z62      -1.035500
      4 C4           1.8670     0.0000     1.2680 cd         1 Z62      -0.338000
      5 C5           3.2400     0.0010     1.5730 c          1 Z62       0.636300
      6 C6           3.6860     0.1440     2.9770 ca         1 Z62      -0.162600
      7 C7           4.9050    -0.3980     3.3840 ca         1 Z62      -0.021000
      8 C8           5.3150    -0.2610     4.6940 ca         1 Z62      -0.165200
      9 C9           4.5200     0.4140     5.6040 ca         1 Z62      -0.056000
     10 C10          3.3100     0.9540     5.2060 ca         1 Z62      -0.142000
     11 C11          2.8910     0.8290     3.8980 ca         1 Z62      -0.070000
     12 O12          4.0630    -0.1190     0.6820 o          1 Z62      -0.531100
     13 S13          0.5440     0.0010     2.4300 ss         1 Z62      -0.233300
     14 C14         -0.5970     0.0010     1.1570 cd         1 Z62       0.758300
     15 N15         -1.9620     0.0020     1.3310 nu         1 Z62      -0.876900
     16 C16         -2.8490     0.0030     0.1670 c3         1 Z62       0.272000
     17 C17         -4.2840     0.0040     0.6280 c2         1 Z62      -0.212200
     18 C18         -5.1060     0.9340     0.2080 c2         1 Z62      -0.187000
     19 N19          6.6080    -0.8360     5.1290 no         1 Z62       0.294200
     20 O20          7.3090    -1.4300     4.3290 o          1 Z62      -0.203000
     21 O21          6.9720    -0.7150     6.2840 o          1 Z62      -0.203000
     22 HN3          2.6010     0.8110    -1.4100 hn         1 Z62       0.449800
     23 HN3A         2.0650    -0.8000    -1.7610 hn         1 Z62       0.449800
     24 H7           5.5290    -0.9260     2.6730 ha         1 Z62       0.184000
     25 H9           4.8450     0.5170     6.6320 ha         1 Z62       0.166000
     26 H10          2.6930     1.4830     5.9220 ha         1 Z62       0.148000
     27 H11          1.9430     1.2520     3.5870 ha         1 Z62       0.155000
     28 HN15        -2.3480     0.0520     2.2530 hn         1 Z62       0.456800
     29 H16         -2.6600     0.8870    -0.4300 h1         1 Z62       0.063700
     30 H16A        -2.6620    -0.8820    -0.4300 h1         1 Z62       0.063700
     31 H17         -4.6360    -0.7640     1.3060 ha         1 Z62       0.130000
     32 H18         -6.1370     0.9350     0.5390 ha         1 Z62       0.119500
     33 H18A        -4.7540     1.7020    -0.4710 ha         1 Z62       0.119500
@<TRIPOS>BOND
     1     1     2 1
     2     1    14 2
     3     2     3 1
     4     2     4 2
     5     3    22 1
     6     3    23 1
     7     4     5 1
     8     4    13 1
     9     5     6 1
    10     5    12 2
    11     6     7 ar
    12     6    11 ar
    13     7     8 ar
    14     7    24 1
    15     8     9 ar
    16     8    19 1
    17     9    10 ar
    18     9    25 1
    19    10    11 ar
    20    10    26 1
    21    11    27 1
    22    13    14 1
    23    14    15 1
    24    15    16 1
    25    15    28 1
    26    16    17 1
    27    16    29 1
    28    16    30 1
    29    17    18 2
    30    17    31 1
    31    18    32 1
    32    18    33 1
    33    19    20 1
    34    19    21 1
@<TRIPOS>SUBSTRUCTURE
     1 Z62         1 TEMP              0 ****  ****    0 ROOT
