@<TRIPOS>MOLECULE
Z63
   30    31     1     0     0
SMALL
bcc


@<TRIPOS>ATOM
      1 N1           0.0000     0.0000     0.0000 nc         1 Z63      -0.713000
      2 C2           1.3120     0.0000     0.0000 cc         1 Z63       0.606200
      3 N3           2.0710     0.0020    -1.1590 nv         1 Z63      -0.576500
      4 C4           1.8650     0.0000     1.2690 cd         1 Z63      -0.321000
      5 C5           3.2380     0.0010     1.5750 c          1 Z63       0.701300
      6 C6           3.6830     0.1500     2.9810 ca         1 Z63      -0.133600
      7 C7           4.9200    -0.3480     3.3990 ca         1 Z63      -0.189800
      8 C8           5.2950    -0.1870     4.7180 ca         1 Z63       0.393200
      9 N9           4.5050     0.4270     5.5780 nb         1 Z63      -0.570000
     10 C10          3.3310     0.9110     5.2240 ca         1 Z63       0.393200
     11 C11          2.8800     0.7990     3.9240 ca         1 Z63      -0.189800
     12 O12          4.0620    -0.1210     0.6850 o          1 Z63      -0.583100
     13 S13          0.5410    -0.0010     2.4300 ss         1 Z63      -0.308300
     14 C14         -0.5980    -0.0010     1.1570 cd         1 Z63       0.592300
     15 N15         -1.9620    -0.0010     1.3300 nu         1 Z63      -0.432900
     16 C16         -2.8500    -0.0020     0.1630 c3         1 Z63       0.200000
     17 C17         -4.2850    -0.0010     0.6240 c2         1 Z63      -0.194200
     18 C18         -5.1060     0.9270     0.2030 c2         1 Z63      -0.122000
     19 HN3          2.0730    -0.8010    -1.7560 hn         1 Z63       0.282300
     20 HN3A         2.6150     0.8060    -1.3990 hn         1 Z63       0.282300
     21 H7           5.5750    -0.8530     2.6990 ha         1 Z63       0.135500
     22 H8           6.2520    -0.5690     5.0520 h4         1 Z63      -0.019400
     23 H10          2.7140     1.4100     5.9620 h4         1 Z63      -0.019400
     24 H11          1.9130     1.1990     3.6410 ha         1 Z63       0.135500
     25 HN15        -2.3490     0.0010     2.2530 hn         1 Z63       0.299800
     26 H16         -2.6620     0.8830    -0.4340 h1         1 Z63       0.034200
     27 H16A        -2.6620    -0.8860    -0.4330 h1         1 Z63       0.034200
     28 H17         -4.6360    -0.7690     1.3020 ha         1 Z63       0.108000
     29 H18         -4.7550     1.6950    -0.4750 ha         1 Z63       0.088000
     30 H18A        -6.1380     0.9280     0.5340 ha         1 Z63       0.088000
@<TRIPOS>BOND
     1     1     2 1   
     2     1    14 2   
     3     2     3 1   
     4     2     4 2   
     5     3    19 1   
     6     3    20 1   
     7     4     5 1   
     8     4    13 1   
     9     5     6 1   
    10     5    12 2   
    11     6     7 ar  
    12     6    11 ar  
    13     7     8 ar  
    14     7    21 1   
    15     8     9 ar  
    16     8    22 1   
    17     9    10 ar  
    18    10    11 ar  
    19    10    23 1   
    20    11    24 1   
    21    13    14 1   
    22    14    15 1   
    23    15    16 1   
    24    15    25 1   
    25    16    17 1   
    26    16    26 1   
    27    16    27 1   
    28    17    18 2   
    29    17    28 1   
    30    18    29 1   
    31    18    30 1   
@<TRIPOS>SUBSTRUCTURE
     1 Z63         1 TEMP              0 ****  ****    0 ROOT
