@<TRIPOS>MOLECULE
molecule
   30    31     1     0     0
SMALL
bcc


@<TRIPOS>ATOM
      1 N1           0.0000     0.0000     0.0000 nc         1 Z63      -0.808000
      2 C2           1.3120     0.0000     0.0000 cc         1 Z63       0.773200
      3 N3           2.0710     0.0020    -1.1590 nv         1 Z63      -1.052500
      4 C4           1.8650     0.0000     1.2690 cd         1 Z63      -0.321000
      5 C5           3.2380     0.0010     1.5750 c          1 Z63       0.632300
      6 C6           3.6830     0.1500     2.9810 ca         1 Z63      -0.123600
      7 C7           4.9200    -0.3480     3.3990 ca         1 Z63      -0.219800
      8 C8           5.2950    -0.1870     4.7180 ca         1 Z63       0.412200
      9 N9           4.5050     0.4270     5.5780 nb         1 Z63      -0.680000
     10 C10          3.3310     0.9110     5.2240 ca         1 Z63       0.412200
     11 C11          2.8800     0.7990     3.9240 ca         1 Z63      -0.219800
     12 O12          4.0620    -0.1210     0.6850 o          1 Z63      -0.528100
     13 S13          0.5410    -0.0010     2.4300 ss         1 Z63      -0.215300
     14 C14         -0.5980    -0.0010     1.1570 cd         1 Z63       0.745300
     15 N15         -1.9620    -0.0010     1.3300 nu         1 Z63      -0.879900
     16 C16         -2.8500    -0.0020     0.1630 c3         1 Z63       0.273000
     17 C17         -4.2850    -0.0010     0.6240 c2         1 Z63      -0.211200
     18 C18         -5.1060     0.9270     0.2030 c2         1 Z63      -0.188000
     19 HN3          2.3070    -0.8630    -1.6030 hn         1 Z63       0.446800
     20 HN3A         2.3440     0.8690    -1.5760 hn         1 Z63       0.446800
     21 H7           5.5750    -0.8530     2.6990 ha         1 Z63       0.153000
     22 H8           6.2520    -0.5690     5.0520 h4         1 Z63       0.025100
     23 H10          2.7140     1.4100     5.9620 h4         1 Z63       0.025100
     24 H11          1.9130     1.1990     3.6410 ha         1 Z63       0.153000
     25 HN15        -2.3490    -0.0050     2.2530 hn         1 Z63       0.455800
     26 H16         -2.6620    -0.8860    -0.4330 h1         1 Z63       0.062700
     27 H16A        -2.6620     0.8830    -0.4340 h1         1 Z63       0.062700
     28 H17         -4.6360    -0.7690     1.3020 ha         1 Z63       0.129000
     29 H18         -6.1380     0.9280     0.5340 ha         1 Z63       0.119000
     30 H18A        -4.7550     1.6950    -0.4750 ha         1 Z63       0.119000
@<TRIPOS>BOND
     1     1     2 1
     2     1    14 2
     3     2     3 1
     4     2     4 2
     5     4     5 1
     6     4    13 1
     7     5     6 1
     8     5    12 2
     9     6     7 ar
    10     6    11 ar
    11     7     8 ar
    12     8     9 ar
    13     9    10 ar
    14    10    11 ar
    15    13    14 1
    16    14    15 1
    17    15    16 1
    18    16    17 1
    19    17    18 2
    20     3    19 1
    21     3    20 1
    22     7    21 1
    23     8    22 1
    24    10    23 1
    25    11    24 1
    26    15    25 1
    27    16    26 1
    28    16    27 1
    29    17    28 1
    30    18    29 1
    31    18    30 1
@<TRIPOS>SUBSTRUCTURE
     1 Z63         1 TEMP              0 ****  ****    0 ROOT
