@<TRIPOS>MOLECULE
Z64
   48    51     1     0     0
SMALL
bcc


@<TRIPOS>ATOM
      1 C1          0.2580    0.4940    0.0520 ca        1 Z64      0.494200
      2 C3          0.6400    1.1520   -2.1430 ca        1 Z64      0.652900
      3 C5          1.8390   -0.6630   -1.4520 ca        1 Z64      0.599300
      4 C6          1.1810   -0.5510   -0.1120 ca        1 Z64     -0.294800
      5 N2         -0.0160    1.3500   -0.9710 nb        1 Z64     -0.673000
      6 C8          2.6220   -2.2720   -0.1770 cc        1 Z64      0.494700
      7 C11        -0.1250    2.0330    1.9160 c3        1 Z64      0.091100
      8 C12        -1.9400    0.5290    1.1510 c3        1 Z64      0.112800
      9 C13        -2.6790    0.2900    2.4610 c3        1 Z64     -0.108400
     10 C14        -4.1400    0.0160    2.1560 c3        1 Z64     -0.078400
     11 C15        -4.9220   -0.1900    3.4440 c3        1 Z64      0.008900
     12 N10        -0.4540    0.7000    1.3390 n4        1 Z64     -0.663100
     13 N4          1.5560    0.1960   -2.4530 nb        1 Z64     -0.569000
     14 N9          2.7300   -1.7690   -1.4110 nd        1 Z64     -0.581700
     15 N7          1.7070   -1.5830    0.6550 na        1 Z64     -0.291300
     16 C16        -6.3220   -0.5240    3.1680 cc        1 Z64     -0.239600
     17 C20        -6.8780   -1.8510    2.9810 cc        1 Z64      0.310600
     18 C21        -6.1140   -3.1110    3.0340 c3        1 Z64     -0.120400
     19 C17        -7.4250    0.3500    3.0540 cd        1 Z64     -0.130800
     20 N18        -8.5390   -0.4700    2.8040 na        1 Z64      0.002400
     21 N19        -8.2250   -1.7580    2.7660 nd        1 Z64     -0.481800
     22 C22        -7.5280    1.7730    3.1590 cd        1 Z64      0.304200
     23 O23        -6.3290    2.5060    3.2130 os        1 Z64     -0.370800
     24 C24        -6.6990    3.8480    3.3230 cd        1 Z64      0.241600
     25 C25        -8.0730    3.9720    3.3350 cc        1 Z64     -0.242300
     26 C26        -8.6110    2.6360    3.2300 cc        1 Z64     -0.232300
     27 H3          0.3910    1.8720   -2.9590 h5        1 Z64      0.099100
     28 H8          3.1830   -3.1460    0.1950 h5        1 Z64      0.108800
     29 H11        -0.5990    2.1100    2.9310 hx        1 Z64      0.108700
     30 H11A        0.9890    2.1360    2.0000 hx        1 Z64      0.108700
     31 H11B       -0.5240    2.8460    1.2510 hx        1 Z64      0.108700
     32 H12        -2.0940   -0.3490    0.4590 hx        1 Z64      0.115200
     33 H12A       -2.3330    1.4550    0.6410 hx        1 Z64      0.115200
     34 H13        -2.6010    1.1880    3.1290 hc        1 Z64      0.060200
     35 H13A       -2.2420   -0.5860    3.0100 hc        1 Z64      0.060200
     36 H14        -4.2310   -0.8970    1.5100 hc        1 Z64      0.063200
     37 H14A       -4.5820    0.8800    1.5930 hc        1 Z64      0.063200
     38 H15        -4.4530   -1.0220    4.0380 hc        1 Z64      0.057200
     39 H15A       -4.8710    0.7480    4.0610 hc        1 Z64      0.057200
     40 HN7         1.4850   -1.8120    1.5880 hn        1 Z64      0.319700
     41 H21        -6.7280   -3.9860    2.7050 hc        1 Z64      0.051033
     42 H21A       -5.7670   -3.2950    4.0820 hc        1 Z64      0.051033
     43 H21B       -5.2180   -3.0330    2.3690 hc        1 Z64      0.051033
     44 HN18       -9.4820   -0.1710    2.6930 hn        1 Z64      0.334700
     45 H24        -5.8630    4.5380    3.3830 h4        1 Z64      0.054100
     46 H25        -8.6580    4.8860    3.4110 ha        1 Z64      0.175000
     47 H26        -9.6660    2.3780    3.2180 ha        1 Z64      0.168000
     48 H101       -0.1330   -0.0220    1.9940 hn        1 Z64      0.438800
@<TRIPOS>BOND
     1    1    4 ar  
     2    1    5 ar  
     3    1   12 1   
     4    2    5 ar  
     5    2   13 ar  
     6    2   27 1   
     7    3    4 ar  
     8    3   13 ar  
     9    3   14 1   
    10    4   15 1   
    11    6   14 2   
    12    6   15 1   
    13    6   28 1   
    14    7   12 1   
    15    7   29 1   
    16    7   30 1   
    17    7   31 1   
    18    8    9 1   
    19    8   12 1   
    20    8   32 1   
    21    8   33 1   
    22    9   10 1   
    23    9   34 1   
    24    9   35 1   
    25   10   11 1   
    26   10   36 1   
    27   10   37 1   
    28   11   16 1   
    29   11   38 1   
    30   11   39 1   
    31   12   48 1   
    32   15   40 1   
    33   16   17 1   
    34   16   19 2   
    35   17   18 1   
    36   17   21 2   
    37   18   41 1   
    38   18   42 1   
    39   18   43 1   
    40   19   20 1   
    41   19   22 1   
    42   20   21 1   
    43   20   44 1   
    44   22   23 1   
    45   22   26 2   
    46   23   24 1   
    47   24   25 2   
    48   24   45 1   
    49   25   26 1   
    50   25   46 1   
    51   26   47 1   
@<TRIPOS>SUBSTRUCTURE
     1 Z64         1 TEMP              0 ****  ****    0 ROOT
