@<TRIPOS>MOLECULE
Z67
   42    44     1     0     0
SMALL
bcc


@<TRIPOS>ATOM
      1 C1           0.0000     0.0000     0.0000 cc         1 Z67      -0.317000
      2 C2           1.3780     0.0000     0.0000 cd         1 Z67       0.559200
      3 N3           1.9060     0.0000     1.2030 nd         1 Z67      -0.683000
      4 C4           1.0870    -0.0000     2.2140 cc         1 Z67       0.546300
      5 S5          -0.5360     0.0070     1.6780 ss         1 Z67      -0.266300
      6 C6          -0.8320    -0.0010    -1.1380 c          1 Z67       0.643700
      7 N7           2.1370    -0.0010    -1.1620 nv         1 Z67      -0.468500
      8 N8           1.4750     0.0010     3.5370 nu         1 Z67      -0.239300
      9 O9          -0.3390    -0.0060    -2.2530 o          1 Z67      -0.647100
     10 C10          5.5220    -0.0360     4.5200 ca         1 Z67      -0.265500
     11 C11          5.1050     0.5440     3.3350 ca         1 Z67       0.041000
     12 C12          3.7630     0.5570     3.0060 ca         1 Z67      -0.156000
     13 C13          2.8340    -0.0120     3.8660 ca         1 Z67       0.098600
     14 C14          3.2560    -0.5930     5.0550 ca         1 Z67      -0.156000
     15 C15          4.5990    -0.6090     5.3760 ca         1 Z67       0.041000
     16 O17          7.9450     0.0660     3.7110 o          1 Z67      -0.498300
     17 N18          7.5430     1.3340     5.7900 nz         1 Z67      -0.134500
     18 O19          7.4180    -1.1310     5.8410 o          1 Z67      -0.498300
     19 N20         -2.1720     0.0040    -0.9940 ns         1 Z67      -0.014100
     20 C21         -4.6330    -0.2010    -4.3560 ca         1 Z67      -0.055000
     21 C22         -3.4210    -0.8680    -4.3450 ca         1 Z67      -0.126000
     22 C23         -2.6020    -0.8020    -3.2330 ca         1 Z67       0.124400
     23 C24         -2.9980    -0.0640    -2.1230 ca         1 Z67      -0.153400
     24 C25         -4.2160     0.6050    -2.1370 ca         1 Z67       0.124400
     25 C26         -5.0300     0.5340    -3.2540 ca         1 Z67      -0.126000
     26 F27         -4.6060     1.3230    -1.0620 f          1 Z67      -0.116900
     27 HN7          1.7230     0.2790    -2.0300 hn         1 Z67       0.294800
     28 HN7A         3.0930    -0.2960    -1.1360 hn         1 Z67       0.294800
     29 HN8          0.7840     0.0360     4.2600 hn         1 Z67       0.304800
     30 H11          5.8310     0.9900     2.6660 ha         1 Z67       0.123000
     31 H12          3.4370     1.0110     2.0790 ha         1 Z67       0.153000
     32 H14          2.5330    -1.0430     5.7250 ha         1 Z67       0.153000
     33 H15          4.9290    -1.0630     6.3030 ha         1 Z67       0.123000
     34 HN18         8.5100     1.3580     6.0470 hn         1 Z67       0.311467
     35 HN1A         6.9780     1.3760     6.6150 hn         1 Z67       0.311467
     36 HN20        -2.5770     0.0390    -0.0800 hn         1 Z67       0.177500
     37 H21         -5.2720    -0.2550    -5.2290 ha         1 Z67       0.115000
     38 H22         -3.1130    -1.4430    -5.2100 ha         1 Z67       0.126500
     39 H26         -5.9800     1.0560    -3.2660 ha         1 Z67       0.126500
     40 F28         -1.4200    -1.4550    -3.2240 f          1 Z67      -0.116900
     41 H183         7.3250     2.1370     5.2350 hn         1 Z67       0.311467
     42 S16          7.2340    -0.0510     4.9360 sy         1 Z67       0.932200
@<TRIPOS>BOND
     1     1     2 2   
     2     1     5 1   
     3     1     6 1   
     4     2     3 1   
     5     2     7 1   
     6     3     4 2   
     7     4     5 1   
     8     4     8 1   
     9     6     9 2   
    10     6    19 1   
    11     7    27 1   
    12     7    28 1   
    13     8    13 1   
    14     8    29 1   
    15    10    11 ar  
    16    10    15 ar  
    17    10    42 1   
    18    11    12 ar  
    19    11    30 1   
    20    12    13 ar  
    21    12    31 1   
    22    13    14 ar  
    23    14    15 ar  
    24    14    32 1   
    25    15    33 1   
    26    16    42 2   
    27    17    34 1   
    28    17    35 1   
    29    17    41 1   
    30    17    42 1   
    31    18    42 2   
    32    19    23 1   
    33    19    36 1   
    34    20    21 ar  
    35    20    25 ar  
    36    20    37 1   
    37    21    22 ar  
    38    21    38 1   
    39    22    23 ar  
    40    22    40 1   
    41    23    24 ar  
    42    24    25 ar  
    43    24    26 1   
    44    25    39 1   
@<TRIPOS>SUBSTRUCTURE
     1 Z67         1 TEMP              0 ****  ****    0 ROOT
