@<TRIPOS>MOLECULE
Z68
   42    44     1     0     0
SMALL
bcc


@<TRIPOS>ATOM
      1 C1           0.0000     0.0000     0.0000 ca         1 Z68       0.002000
      2 N1           2.1210    -0.0010    -1.2830 no         1 Z68       1.050200
      3 O1           1.5110    -0.0000    -2.3370 o          1 Z68      -0.452500
      4 S1           4.2260     1.4460     2.4780 ss         1 Z68      -0.315300
      5 C2           1.3840     0.0000     0.0000 ca         1 Z68      -0.459200
      6 N2           5.3990     1.1200     4.6490 nc         1 Z68      -0.743000
      7 O2           3.3390    -0.0010    -1.2850 o          1 Z68      -0.452500
      8 C3           2.0760     0.0000     1.1920 ca         1 Z68      -0.004000
      9 N3           6.7300     2.3430     3.1150 nu         1 Z68      -0.425900
     10 O3           1.6080    -0.4970     4.6780 o          1 Z68      -0.634100
     11 C4           1.3790     0.0010     2.4010 ca         1 Z68      -0.175600
     12 N4           3.9240    -0.1130     6.0410 nv         1 Z68      -0.470500
     13 C5          -0.0160     0.0000     2.3960 ca         1 Z68       0.012000
     14 C6          -0.6980     0.0050     1.1950 ca         1 Z68      -0.134000
     15 C7           2.1170    -0.0050     3.6840 c          1 Z68       0.723300
     16 C8           3.4040     0.5570     3.7590 cd         1 Z68      -0.401000
     17 C9           4.2520     0.5130     4.8490 cc         1 Z68       0.604200
     18 C10          5.5870     1.6700     3.4850 cd         1 Z68       0.628300
     19 C11          7.8410     2.4760     4.0600 c3         1 Z68       0.120500
     20 C12          8.6680     3.7120     3.7040 c3         1 Z68      -0.038900
     21 C13          9.8290     3.8520     4.6920 c3         1 Z68      -0.016900
     22 C14         10.7130     2.6060     4.6180 c3         1 Z68      -0.028400
     23 C15          9.8860     1.3700     4.9750 c3         1 Z68      -0.016900
     24 C16          8.7260     1.2300     3.9870 c3         1 Z68      -0.038900
     25 H1          -0.5390     0.0040    -0.9390 ha         1 Z68       0.130000
     26 H3           3.1600     0.0000     1.1900 ha         1 Z68       0.165000
     27 HN3          6.7990     2.7480     2.2030 hn         1 Z68       0.300800
     28 H1N4         4.5670    -0.1000     6.8080 hn         1 Z68       0.289800
     29 H2N4         3.0480    -0.5900     6.1310 hn         1 Z68       0.289800
     30 H5          -0.5630     0.0030     3.3310 ha         1 Z68       0.123000
     31 H6          -1.7810     0.0050     1.1880 ha         1 Z68       0.117000
     32 H11          7.4540     2.5820     5.0660 h1         1 Z68       0.061700
     33 H112         9.0620     3.6040     2.7000 hc         1 Z68       0.022200
     34 H212         8.0410     4.5930     3.7590 hc         1 Z68       0.022200
     35 H113        10.4160     4.7260     4.4370 hc         1 Z68       0.017200
     36 H213         9.4360     3.9550     5.6960 hc         1 Z68       0.017200
     37 H114        11.5330     2.7050     5.3190 hc         1 Z68       0.016200
     38 H214        11.1020     2.5000     3.6120 hc         1 Z68       0.016200
     39 H115        10.5130     0.4880     4.9210 hc         1 Z68       0.017200
     40 H215         9.4920     1.4780     5.9790 hc         1 Z68       0.017200
     41 H116         9.1190     1.1260     2.9830 hc         1 Z68       0.022200
     42 H216         8.1390     0.3560     4.2430 hc         1 Z68       0.022200
@<TRIPOS>BOND
     1     1     5 ar  
     2     1    14 ar  
     3     1    25 1   
     4     2     3 1   
     5     2     5 1   
     6     2     7 1   
     7     4    16 1   
     8     4    18 1   
     9     5     8 ar  
    10     6    17 1   
    11     6    18 2   
    12     8    11 ar  
    13     8    26 1   
    14     9    18 1   
    15     9    19 1   
    16     9    27 1   
    17    10    15 2   
    18    11    13 ar  
    19    11    15 1   
    20    12    17 1   
    21    12    28 1   
    22    12    29 1   
    23    13    14 ar  
    24    13    30 1   
    25    14    31 1   
    26    15    16 1   
    27    16    17 2   
    28    19    20 1   
    29    19    24 1   
    30    19    32 1   
    31    20    21 1   
    32    20    33 1   
    33    20    34 1   
    34    21    22 1   
    35    21    35 1   
    36    21    36 1   
    37    22    23 1   
    38    22    37 1   
    39    22    38 1   
    40    23    24 1   
    41    23    39 1   
    42    23    40 1   
    43    24    41 1   
    44    24    42 1   
@<TRIPOS>SUBSTRUCTURE
     1 Z68         1 TEMP              0 ****  ****    0 ROOT
