@<TRIPOS>MOLECULE
molecule
   42    41     1     0     0
SMALL
bcc


@<TRIPOS>ATOM
      1 C1           0.0000     0.0000     0.0000 c3         1 Z6X      -0.092100
      2 C2           1.5300     0.0000     0.0000 c3         1 Z6X      -0.084400
      3 C3           2.0410     0.0000     1.4420 c3         1 Z6X      -0.082400
      4 C4           3.5700     0.0010     1.4420 c3         1 Z6X      -0.082400
      5 C5           4.0800     0.0010     2.8840 c3         1 Z6X      -0.082400
      6 C6           5.6100     0.0010     2.8840 c3         1 Z6X      -0.082400
      7 C7           6.1210     0.0010     4.3260 c3         1 Z6X      -0.082400
      8 C8           7.6510     0.0020     4.3260 c3         1 Z6X      -0.080400
      9 C9           8.1610     0.0020     5.7680 c3         1 Z6X      -0.085400
     10 C10          9.6910     0.0020     5.7680 c3         1 Z6X      -0.071400
     11 C11         10.2020     0.0020     7.2100 c3         1 Z6X      -0.196400
     12 C12         11.7080     0.0030     7.2100 c          1 Z6X       0.546100
     13 O1          12.3120     0.0030     6.1640 o          1 Z6X      -0.475100
     14 C13         12.4620     0.0030     8.5140 c3         1 Z6X      -0.282400
     15 C14         13.9440     0.0030     8.2390 c          1 Z6X       0.888600
     16 O2          14.3460     0.0030     7.0990 o          1 Z6X      -0.834300
     17 O3          14.8160     0.0030     9.2580 o          1 Z6X      -0.834300
     18 H11         -0.3610    -0.0000    -1.0210 hc         1 Z6X       0.030700
     19 H12         -0.3610     0.8850     0.5100 hc         1 Z6X       0.030700
     20 H13         -0.3610    -0.8840     0.5110 hc         1 Z6X       0.030700
     21 H21          1.8910    -0.8840    -0.5110 hc         1 Z6X       0.039700
     22 H22          1.8910     0.8840    -0.5110 hc         1 Z6X       0.039700
     23 H31          1.6790     0.8840     1.9530 hc         1 Z6X       0.039700
     24 H32          1.6800    -0.8850     1.9530 hc         1 Z6X       0.039700
     25 H41          3.9300     0.8860     0.9310 hc         1 Z6X       0.040700
     26 H42          3.9310    -0.8830     0.9310 hc         1 Z6X       0.040700
     27 H51          3.7190    -0.8830     3.3940 hc         1 Z6X       0.039700
     28 H52          3.7190     0.8850     3.3940 hc         1 Z6X       0.039700
     29 H61          5.9710     0.8850     2.3730 hc         1 Z6X       0.040700
     30 H62          5.9710    -0.8830     2.3730 hc         1 Z6X       0.040700
     31 H71          5.7600    -0.8840     4.8360 hc         1 Z6X       0.037700
     32 H72          5.7590     0.8850     4.8370 hc         1 Z6X       0.037700
     33 H81          8.0120    -0.8820     3.8150 hc         1 Z6X       0.041700
     34 H82          8.0110     0.8870     3.8150 hc         1 Z6X       0.041700
     35 H91          7.8000     0.8860     6.2790 hc         1 Z6X       0.033700
     36 H92          7.8000    -0.8820     6.2790 hc         1 Z6X       0.033700
     37 H101        10.0520     0.8860     5.2570 hc         1 Z6X       0.052700
     38 H102        10.0520    -0.8820     5.2570 hc         1 Z6X       0.052700
     39 H111         9.8410    -0.8830     7.7200 hc         1 Z6X       0.046700
     40 H112         9.8400     0.8860     7.7210 hc         1 Z6X       0.046700
     41 H131        12.2000    -0.8810     9.0830 hc         1 Z6X       0.048700
     42 H132        12.2010     0.8880     9.0820 hc         1 Z6X       0.048700
@<TRIPOS>BOND
     1     1     2 1
     2     1    18 1
     3     1    19 1
     4     1    20 1
     5     2     3 1
     6     2    21 1
     7     2    22 1
     8     3     4 1
     9     3    23 1
    10     3    24 1
    11     4     5 1
    12     4    25 1
    13     4    26 1
    14     5     6 1
    15     5    27 1
    16     5    28 1
    17     6     7 1
    18     6    29 1
    19     6    30 1
    20     7     8 1
    21     7    31 1
    22     7    32 1
    23     8     9 1
    24     8    33 1
    25     8    34 1
    26     9    10 1
    27     9    35 1
    28     9    36 1
    29    10    11 1
    30    10    37 1
    31    10    38 1
    32    11    12 1
    33    11    39 1
    34    11    40 1
    35    12    14 1
    36    12    13 2
    37    14    15 1
    38    14    41 1
    39    14    42 1
    40    15    17 1
    41    15    16 1
@<TRIPOS>SUBSTRUCTURE
     1 Z6X         1 TEMP              0 ****  ****    0 ROOT
