@<TRIPOS>MOLECULE
Z71
   42    44     1     0     0
SMALL
bcc


@<TRIPOS>ATOM
      1 C1           0.0000     0.0000     0.0000 cc         1 Z71      -0.221000
      2 C2           1.3780     0.0000     0.0000 cd         1 Z71       0.573200
      3 N3           1.9060     0.0000     1.2020 nd         1 Z71      -0.652000
      4 C4           1.0870     0.0010     2.2130 cc         1 Z71       0.522300
      5 S5          -0.5360     0.0080     1.6780 ss         1 Z71      -0.265300
      6 C6          -0.8330    -0.0000    -1.1390 c          1 Z71       0.626700
      7 N7           2.1360    -0.0020    -1.1620 nv         1 Z71      -0.604500
      8 N8           1.4750     0.0010     3.5360 nu         1 Z71      -0.244300
      9 O9          -0.3400    -0.0050    -2.2540 o          1 Z71      -0.614100
     10 C10          5.5030     0.3890     4.5240 ca         1 Z71      -0.263500
     11 C11          5.0090     1.0000     3.3850 ca         1 Z71       0.041500
     12 C12          3.6740     0.8730     3.0540 ca         1 Z71      -0.148000
     13 C13          2.8270     0.1310     3.8670 ca         1 Z71       0.098600
     14 C14          3.3260    -0.4810     5.0110 ca         1 Z71      -0.148000
     15 C15          4.6620    -0.3540     5.3320 ca         1 Z71       0.041500
     16 O17          7.8900     0.8480     3.7310 o          1 Z71      -0.497300
     17 N18          7.3490     1.8990     5.8970 nz         1 Z71      -0.135500
     18 O19          7.5270    -0.5590     5.7640 o          1 Z71      -0.497300
     19 N20         -2.1720     0.0060    -0.9940 ns         1 Z71      -0.027100
     20 C21         -4.6330    -0.3170    -4.3430 ca         1 Z71      -0.176000
     21 C22         -3.4160    -0.9760    -4.3130 ca         1 Z71       0.157900
     22 C23         -2.5970    -0.8700    -3.2030 ca         1 Z71      -0.166500
     23 C24         -2.9980    -0.1010    -2.1170 ca         1 Z71      -0.044400
     24 C25         -4.2190     0.5590    -2.1500 ca         1 Z71      -0.166500
     25 C26         -5.0310     0.4550    -3.2640 ca         1 Z71       0.157900
     26 F28         -6.2190     1.0980    -3.2970 f          1 Z71      -0.119400
     27 HN7          2.3860     0.8630    -1.5990 hn         1 Z71       0.290800
     28 HN7A         2.4480    -0.8680    -1.5550 hn         1 Z71       0.290800
     29 HN8          0.7860    -0.0600     4.2590 hn         1 Z71       0.303800
     30 H11          5.6700     1.5800     2.7530 ha         1 Z71       0.123500
     31 H12          3.2880     1.3510     2.1630 ha         1 Z71       0.148000
     32 H14          2.6680    -1.0640     5.6450 ha         1 Z71       0.148000
     33 H15          5.0520    -0.8310     6.2230 ha         1 Z71       0.123500
     34 HN18         8.3070     2.0230     6.1590 hn         1 Z71       0.311800
     35 HN1A         6.7870     1.8100     6.7210 hn         1 Z71       0.311800
     36 HN20        -2.5760     0.0920    -0.0820 hn         1 Z71       0.172500
     37 H21         -5.2720    -0.3990    -5.2140 ha         1 Z71       0.140000
     38 H23         -1.6450    -1.3870    -3.1790 ha         1 Z71       0.139500
     39 H25         -4.5310     1.1630    -1.3060 ha         1 Z71       0.139500
     40 F27         -3.0270    -1.7250    -5.3690 f          1 Z71      -0.119400
     41 H183         7.0270     2.7140     5.4130 hn         1 Z71       0.311800
     42 S16          7.2060     0.5550     4.9410 sy         1 Z71       0.934200
@<TRIPOS>BOND
     1     1     2 2   
     2     1     5 1   
     3     1     6 1   
     4     2     3 1   
     5     2     7 1   
     6     3     4 2   
     7     4     5 1   
     8     4     8 1   
     9     6     9 2   
    10     6    19 1   
    11     7    27 1   
    12     7    28 1   
    13     8    13 1   
    14     8    29 1   
    15    10    11 ar  
    16    10    15 ar  
    17    10    42 1   
    18    11    12 ar  
    19    11    30 1   
    20    12    13 ar  
    21    12    31 1   
    22    13    14 ar  
    23    14    15 ar  
    24    14    32 1   
    25    15    33 1   
    26    16    42 2   
    27    17    34 1   
    28    17    35 1   
    29    17    41 1   
    30    17    42 1   
    31    18    42 2   
    32    19    23 1   
    33    19    36 1   
    34    20    21 ar  
    35    20    25 ar  
    36    20    37 1   
    37    21    22 ar  
    38    21    40 1   
    39    22    23 ar  
    40    22    38 1   
    41    23    24 ar  
    42    24    25 ar  
    43    24    39 1   
    44    25    26 1   
@<TRIPOS>SUBSTRUCTURE
     1 Z71         1 TEMP              0 ****  ****    0 ROOT
