@<TRIPOS>MOLECULE
molecule
   46    49     1     0     0
SMALL
bcc


@<TRIPOS>ATOM
      1 C1           0.0000     0.0000     0.0000 ca         1 Z72       0.190100
      2 C2           1.3900     0.0000     0.0000 ca         1 Z72       0.060100
      3 O3           2.0750     0.0000    -1.1770 os         1 Z72      -0.312900
      4 C4           2.4010     1.2740    -1.7360 c3         1 Z72       0.144100
      5 C5           2.4590     1.1880    -3.2750 c3         1 Z72      -0.090900
      6 C6           3.6210     2.0930    -3.7220 c3         1 Z72      -0.084400
      7 C7           4.2270     2.6970    -2.4390 c3         1 Z72      -0.084400
      8 C8           3.8330     1.6970    -1.3250 c3         1 Z72      -0.090900
      9 C9           2.0780     0.0000     1.2070 ca         1 Z72       0.171100
     10 CA          -2.0320    -0.0010    -1.1900 c          1 Z72       0.747800
     11 OA          -0.6900    -0.0000    -1.1620 os         1 Z72      -0.294200
     12 OB          -2.6020    -0.0010    -2.2680 o          1 Z72      -0.578500
     13 O10          3.4370     0.0000     1.2090 os         1 Z72      -0.303900
     14 C11          4.0840     0.0000     2.4820 c3         1 Z72       0.123700
     15 C12          1.3860    -0.0010     2.4140 ca         1 Z72      -0.236000
     16 C13          0.0200    -0.0000     2.4280 ca         1 Z72      -0.039000
     17 C14         -0.6890    -0.0060     1.2240 ca         1 Z72      -0.197800
     18 C15         -2.1600    -0.0060     1.2110 cc         1 Z72       0.265800
     19 N16         -2.8820    -0.0110     2.3860 nu         1 Z72      -0.682400
     20 C17         -2.7960    -0.0010    -0.0160 cd         1 Z72      -0.320200
     21 C18         -2.7140    -1.0480     3.3030 ca         1 Z72       0.216600
     22 C19         -2.9500    -0.8460     4.6630 ca         1 Z72      -0.152900
     23 Cl20        -3.4620     0.7070     5.2460 cl         1 Z72      -0.074400
     24 C21         -2.7720    -1.8990     5.5380 ca         1 Z72       0.461700
     25 N22         -2.3840    -3.0830     5.1020 nb         1 Z72      -0.692000
     26 C23         -2.1500    -3.3130     3.8240 ca         1 Z72       0.461700
     27 C24         -2.3110    -2.3160     2.8830 ca         1 Z72      -0.152900
     28 Cl25        -2.0000    -2.6310     1.2050 cl         1 Z72      -0.074400
     29 H4           1.6830     2.0250    -1.4270 h1         1 Z72       0.045700
     30 H5           2.6480     0.1660    -3.5810 hc         1 Z72       0.057200
     31 H5A          1.5290     1.5430    -3.7010 hc         1 Z72       0.057200
     32 H6           4.3670     1.5060    -4.2430 hc         1 Z72       0.044450
     33 H6A          3.2480     2.8830    -4.3630 hc         1 Z72       0.044450
     34 H7           5.3050     2.7610    -2.5250 hc         1 Z72       0.044450
     35 H7A          3.7980     3.6720    -2.2410 hc         1 Z72       0.044450
     36 H8           4.4980     0.8420    -1.3250 hc         1 Z72       0.057200
     37 H8A          3.8240     2.1860    -0.3580 hc         1 Z72       0.057200
     38 H11          3.7960    -0.8870     3.0330 h1         1 Z72       0.046367
     39 H11A         3.7890     0.8820     3.0380 h1         1 Z72       0.046367
     40 H11B         5.1580     0.0050     2.3420 h1         1 Z72       0.046367
     41 H12          1.9330    -0.0010     3.3480 ha         1 Z72       0.147000
     42 H13         -0.5130    -0.0010     3.3710 ha         1 Z72       0.146000
     43 HN16        -3.5480     0.7140     2.5670 hn         1 Z72       0.474800
     44 H17         -3.8780    -0.0010    -0.0700 ha         1 Z72       0.175000
     45 H21         -2.9530    -1.7520     6.5960 h4         1 Z72       0.044100
     46 H23         -1.8350    -4.3010     3.5080 h4         1 Z72       0.044100
@<TRIPOS>BOND
     1    17     1 ar
     2    11     1 1
     3     1     2 ar
     4     2     9 ar
     5     2     3 1
     6     4     3 1
     7     8     4 1
     8     4     5 1
     9     4    29 1
    10     5     6 1
    11     5    30 1
    12     5    31 1
    13     7     6 1
    14     6    32 1
    15     6    33 1
    16     8     7 1
    17     7    34 1
    18     7    35 1
    19     8    36 1
    20     8    37 1
    21    15     9 ar
    22     9    13 1
    23    20    10 1
    24    12    10 2
    25    10    11 1
    26    13    14 1
    27    14    38 1
    28    14    39 1
    29    14    40 1
    30    16    15 ar
    31    15    41 1
    32    17    16 ar
    33    16    42 1
    34    18    17 1
    35    19    18 1
    36    20    18 2
    37    21    19 1
    38    19    43 1
    39    20    44 1
    40    22    21 ar
    41    27    21 ar
    42    24    22 ar
    43    22    23 1
    44    25    24 ar
    45    24    45 1
    46    25    26 ar
    47    26    27 ar
    48    26    46 1
    49    27    28 1
@<TRIPOS>SUBSTRUCTURE
     1 Z72         1 TEMP              0 ****  ****    0 ROOT
