@<TRIPOS>MOLECULE
Z73
   38    40     1     0     0
SMALL
bcc


@<TRIPOS>ATOM
      1 C1         -0.0780    0.0170   -0.0150 cc        1 Z73      0.489600
      2 C2          1.3730   -0.0100   -0.0630 cc        1 Z73     -0.232600
      3 N3         -0.7450    0.0430    1.1180 nd        1 Z73     -0.662000
      4 N4          2.1070   -0.0110    1.1620 na        1 Z73     -0.187000
      5 C5         -0.0320    0.0420    2.3170 ca        1 Z73      0.235300
      6 C6          1.4120    0.0140    2.3840 ca        1 Z73      0.466500
      7 C7          1.3780    0.0330    4.6970 ca        1 Z73      0.654600
      8 N8          2.1050    0.0080    3.5640 nb        1 Z73     -0.752000
      9 C9         -0.0470    0.0650    4.7440 ca        1 Z73     -0.265300
     10 C10        -0.7360    0.0690    3.5510 ca        1 Z73     -0.092300
     11 C11         3.4740   -0.0310    0.8220 cc        1 Z73      0.409800
     12 N12         3.6190   -0.0480   -0.5290 nd        1 Z73     -0.567300
     13 C13         2.3450   -0.0350   -1.0910 cd        1 Z73      0.075400
     14 C14        -0.7990    0.0240   -1.3250 c3        1 Z73     -0.153400
     15 C15         2.1050   -0.0550   -2.5460 c3        1 Z73     -0.024900
     16 C16         4.6120   -0.0390    1.7890 c3        1 Z73     -0.083700
     17 C17         4.9040   -1.4440    2.2810 c3        1 Z73     -0.078400
     18 C18         6.0220   -1.4360    3.2920 c3        1 Z73     -0.092100
     19 O19         1.9860    0.0280    5.9340 os        1 Z73     -0.441100
     20 C20         3.4130   -0.0220    5.9770 c3        1 Z73      0.122700
     21 H9         -0.5540    0.0850    5.7180 ha        1 Z73      0.167000
     22 H10        -1.8380    0.0920    3.5420 ha        1 Z73      0.164000
     23 H14        -0.6270    1.0080   -1.8300 hc        1 Z73      0.062033
     24 H14A       -1.8990   -0.1240   -1.1980 hc        1 Z73      0.062033
     25 H14B       -0.3970   -0.7920   -1.9740 hc        1 Z73      0.062033
     26 H15         3.0480    0.1280   -3.1180 hc        1 Z73      0.052700
     27 H15A        1.6970   -1.0530   -2.8490 hc        1 Z73      0.052700
     28 H15B        1.3620    0.7340   -2.8230 hc        1 Z73      0.052700
     29 H16         4.3940    0.6410    2.6550 hc        1 Z73      0.071700
     30 H16A        5.5220    0.3690    1.2690 hc        1 Z73      0.071700
     31 H17         3.9830   -1.8860    2.7450 hc        1 Z73      0.051200
     32 H18         6.9490   -0.9930    2.8540 hc        1 Z73      0.033033
     33 H18A        6.2510   -2.4780    3.6210 hc        1 Z73      0.033033
     34 H20         3.8550    0.8750    5.4810 h1        1 Z73      0.052700
     35 H20A        3.7890   -0.9580    5.4970 h1        1 Z73      0.052700
     36 H20B        3.6290   -0.0200    7.0750 h1        1 Z73      0.052700
     37 H171        5.1830   -2.0930    1.4090 hc        1 Z73      0.051200
     38 H181        5.7350   -0.8360    4.1900 hc        1 Z73      0.033033
@<TRIPOS>BOND
     1    1    2 1   
     2    1    3 2   
     3    1   14 1   
     4    2    4 1   
     5    2   13 2   
     6    3    5 1   
     7    4    6 1   
     8    4   11 1   
     9    5    6 ar  
    10    5   10 ar  
    11    6    8 ar  
    12    7    8 ar  
    13    7    9 ar  
    14    7   19 1   
    15    9   10 ar  
    16    9   21 1   
    17   10   22 1   
    18   11   12 2   
    19   11   16 1   
    20   12   13 1   
    21   13   15 1   
    22   14   23 1   
    23   14   24 1   
    24   14   25 1   
    25   15   26 1   
    26   15   27 1   
    27   15   28 1   
    28   16   17 1   
    29   16   29 1   
    30   16   30 1   
    31   17   18 1   
    32   17   31 1   
    33   17   37 1   
    34   18   32 1   
    35   18   33 1   
    36   18   38 1   
    37   19   20 1   
    38   20   34 1   
    39   20   35 1   
    40   20   36 1   
@<TRIPOS>SUBSTRUCTURE
     1 Z73         1 TEMP              0 ****  ****    0 ROOT
