@<TRIPOS>MOLECULE
molecule
   38    40     1     0     0
SMALL
bcc


@<TRIPOS>ATOM
      1 C1           0.0000     0.0000     0.0000 cc         1 Z73       0.497600
      2 C2           1.4100     0.0000     0.0000 cc         1 Z73      -0.259600
      3 N3          -0.6660    -0.0000     1.1250 nd         1 Z73      -0.695000
      4 N4           2.0990     0.0000     1.2010 na         1 Z73      -0.146000
      5 C5          -0.0270    -0.0000     2.3230 ca         1 Z73       0.252300
      6 C6           1.3770     0.0000     2.3840 ca         1 Z73       0.470500
      7 C7           1.3290    -0.0020     4.6930 ca         1 Z73       0.683600
      8 N8           1.9970    -0.0010     3.5530 nb         1 Z73      -0.795000
      9 C9          -0.0630    -0.0010     4.7120 ca         1 Z73      -0.270300
     10 C10         -0.7580     0.0000     3.5190 ca         1 Z73      -0.086300
     11 C11          3.4110    -0.0000     0.9050 cc         1 Z73       0.401800
     12 N12          3.5610     0.0000    -0.3960 nd         1 Z73      -0.583300
     13 C13          2.3670    -0.0010    -0.9900 cd         1 Z73       0.086400
     14 C14         -0.7470     0.0050    -1.3080 c3         1 Z73      -0.140400
     15 C15          2.1110    -0.0000    -2.4760 c3         1 Z73      -0.011900
     16 C16          4.5310     0.0000     1.9130 c3         1 Z73      -0.075700
     17 C17          4.9110    -1.4420     2.2530 c3         1 Z73      -0.081400
     18 C18          6.0480    -1.4430     3.2770 c3         1 Z73      -0.093100
     19 O19          2.0100    -0.0030     5.8650 os         1 Z73      -0.435100
     20 C20          3.4370    -0.0020     5.7860 c3         1 Z73       0.134700
     21 H9          -0.5960    -0.0020     5.6540 ha         1 Z73       0.159000
     22 H10         -1.8410     0.0010     3.5080 ha         1 Z73       0.166000
     23 H14         -1.8130     0.0080    -1.1160 hc         1 Z73       0.059033
     24 H14A        -0.4800     0.8910    -1.8730 hc         1 Z73       0.059033
     25 H14B        -0.4850    -0.8780    -1.8770 hc         1 Z73       0.059033
     26 H15          1.5450    -0.8840    -2.7450 hc         1 Z73       0.050700
     27 H15A         1.5480     0.8850    -2.7450 hc         1 Z73       0.050700
     28 H15B         3.0560    -0.0020    -3.0050 hc         1 Z73       0.050700
     29 H16          4.2080     0.5110     2.8120 hc         1 Z73       0.071200
     30 H16A         5.3910     0.5110     1.4970 hc         1 Z73       0.071200
     31 H17          4.0510    -1.9540     2.6690 hc         1 Z73       0.050700
     32 H18          6.9670    -1.7570     2.7960 hc         1 Z73       0.033700
     33 H18A         6.1740    -0.4440     3.6770 hc         1 Z73       0.033700
     34 H20          3.7760    -0.9440     5.3720 h1         1 Z73       0.049033
     35 H20A         3.7630     0.8110     5.1490 h1         1 Z73       0.049033
     36 H20B         3.8530     0.1260     6.7780 h1         1 Z73       0.049033
     37 H171         5.2340    -1.9530     1.3540 hc         1 Z73       0.050700
     38 H181         5.8100    -2.1270     4.0820 hc         1 Z73       0.033700
@<TRIPOS>BOND
     1     1     2 1
     2     2     4 1
     3     2    13 2
     4     3     1 2
     5     3     5 1
     6     4    11 1
     7     5     6 ar
     8     6     4 1
     9     6     8 ar
    10     7    19 1
    11     7     8 ar
    12     9     7 ar
    13     9    21 1
    14    10     5 ar
    15    10     9 ar
    16    10    22 1
    17    11    12 2
    18    11    16 1
    19    13    12 1
    20    13    15 1
    21    14     1 1
    22    14    23 1
    23    14    24 1
    24    14    25 1
    25    15    26 1
    26    15    27 1
    27    15    28 1
    28    16    17 1
    29    16    29 1
    30    16    30 1
    31    17    18 1
    32    17    31 1
    33    18    32 1
    34    18    33 1
    35    19    20 1
    36    20    34 1
    37    20    35 1
    38    20    36 1
    39    17    37 1
    40    18    38 1
@<TRIPOS>SUBSTRUCTURE
     1 Z73         1 TEMP              0 ****  ****    0 ROOT
