@<TRIPOS>MOLECULE
Z74
   88    91     1     0     0
SMALL
bcc


@<TRIPOS>ATOM
      1 C1           0.0000     0.0000     0.0000 ca         1 Z74      -0.101000
      2 F1           7.0650     2.2100     4.9720 f          1 Z74      -0.127400
      3 N1           1.4300    -0.0060     4.8570 ns         1 Z74      -0.198900
      4 O1           0.0920    -0.9090    12.2230 o          1 Z74      -0.584300
      5 C2           1.3970     0.0000     0.0000 ca         1 Z74      -0.149600
      6 N2           1.7700    -0.8330    -2.2720 n          1 Z74      -0.148800
      7 O2           2.1590    -1.8700    13.2470 o          1 Z74      -0.584300
      8 C3           2.0910     0.0000     1.2080 ca         1 Z74       0.015000
      9 N3           1.9900    -1.5950    10.8010 n3         1 Z74      -0.535500
     10 O3           3.0790     0.7550    -1.4370 o          1 Z74      -0.632100
     11 C4           1.3850    -0.0020     2.4090 ca         1 Z74      -0.161600
     12 N4           3.2280    -1.5920     8.3050 n7         1 Z74      -0.572200
     13 O4           3.3290    -0.0040     3.7070 o          1 Z74      -0.635100
     14 C5          -0.0120    -0.0020     2.3950 ca         1 Z74      -0.074000
     15 O5           0.1250     0.2190     7.4310 oh         1 Z74      -0.583800
     16 C6          -0.6920    -0.0010     1.1940 ca         1 Z74      -0.102300
     17 C7           2.1140    -0.0040     3.6960 c          1 Z74       0.596700
     18 C8           2.1370     0.0020    -1.2800 c          1 Z74       0.608700
     19 C9           2.5800    -0.9250    -3.4900 c3         1 Z74       0.032500
     20 C10          0.5600    -1.6470    -2.1340 c3         1 Z74       0.032500
     21 C11         -0.6000    -0.9660    -2.8620 c3         1 Z74      -0.056900
     22 C12         -1.8920    -1.7440    -2.6040 c3         1 Z74       0.008400
     23 C13          3.6400    -2.0120    -3.3160 c3         1 Z74      -0.056900
     24 C14          4.4860    -2.1090    -4.5870 c3         1 Z74       0.008400
     25 C15         -2.1990     0.0040     1.1870 c3         1 Z74       0.065200
     26 C16          2.1510    -0.0070     6.1320 c3         1 Z74       0.007700
     27 C17          1.2640    -0.6180     7.2190 c3         1 Z74       0.186100
     28 C18          2.0600    -0.7350     8.5210 c3         1 Z74       0.069500
     29 C19          2.5120     1.4290     6.5170 c3         1 Z74       0.011900
     30 C20          3.4830     1.9890     5.5100 ca         1 Z74      -0.024300
     31 C21          3.0130     2.6510     4.3910 ca         1 Z74      -0.140500
     32 C22          3.9050     3.1670     3.4650 ca         1 Z74       0.141400
     33 C23          5.2670     3.0190     3.6600 ca         1 Z74      -0.165000
     34 C24          5.7370     2.3560     4.7800 ca         1 Z74       0.141400
     35 C25          4.8430     1.8460     5.7080 ca         1 Z74      -0.140500
     36 C26          1.1690    -1.3520     9.6040 c3         1 Z74       0.204800
     37 C27          3.2540    -2.3280    10.6410 c3         1 Z74       0.200800
     38 C28          4.0580    -1.6700     9.5140 c3         1 Z74       0.126800
     39 C29          2.1600     0.5710    12.4890 ca         1 Z74      -0.165500
     40 C30          3.4090     0.7480    13.0540 ca         1 Z74       0.004500
     41 C31          3.9230     2.0210    13.2120 ca         1 Z74      -0.131500
     42 C32          3.1880     3.1180    12.8050 ca         1 Z74      -0.043000
     43 C33          1.9380     2.9420    12.2400 ca         1 Z74      -0.131500
     44 C34          1.4270     1.6690    12.0780 ca         1 Z74       0.004500
     45 H1          -0.5410     0.0000    -0.9390 ha         1 Z74       0.142000
     46 HN1          0.4300    -0.0500     4.8480 hn         1 Z74       0.177500
     47 H3           3.1740     0.0000     1.2130 ha         1 Z74       0.143000
     48 HN4          2.9250    -2.5100     8.0470 hn         1 Z74       0.257800
     49 H5          -0.5620    -0.0030     3.3280 ha         1 Z74       0.103000
     50 HO5         -0.6620    -0.2840     7.3030 ho         1 Z74       0.393000
     51 H9           1.9420    -1.1730    -4.3290 h1         1 Z74       0.036700
     52 H9A          3.0650     0.0260    -3.6740 h1         1 Z74       0.036700
     53 H10          0.7330    -2.6260    -2.5660 h1         1 Z74       0.036700
     54 H10A         0.3150    -1.7540    -1.0840 h1         1 Z74       0.036700
     55 H11         -0.3970    -0.9460    -3.9250 hc         1 Z74       0.023450
     56 H11A        -0.7100     0.0480    -2.4960 hc         1 Z74       0.023450
     57 H12         -1.7510    -2.4110    -1.7620 hc         1 Z74       0.003367
     58 H12A        -2.6940    -1.0500    -2.3850 hc         1 Z74       0.003367
     59 H12B        -2.1460    -2.3230    -3.4840 hc         1 Z74       0.003367
     60 H13          4.2780    -1.7640    -2.4760 hc         1 Z74       0.023450
     61 H13A         3.1550    -2.9640    -3.1320 hc         1 Z74       0.023450
     62 H14          5.2650    -2.8490    -4.4470 hc         1 Z74       0.003367
     63 H14A         4.9370    -1.1450    -4.7950 hc         1 Z74       0.003367
     64 H14B         3.8570    -2.4000    -5.4190 hc         1 Z74       0.003367
     65 H15         -2.5640     0.3980     2.1280 hc         1 Z74       0.008367
     66 H15A        -2.5630    -1.0080     1.0540 hc         1 Z74       0.008367
     67 H15B        -2.5540     0.6260     0.3740 hc         1 Z74       0.008367
     68 H16          3.0570    -0.5930     6.0340 h1         1 Z74       0.084700
     69 H17          0.9360    -1.6020     6.9070 h1         1 Z74       0.006700
     70 H18          2.3870     0.2480     8.8400 h1         1 Z74       0.061700
     71 H19          2.9660     1.4360     7.5000 hc         1 Z74       0.034200
     72 H19A         1.6140     2.0360     6.5290 hc         1 Z74       0.034200
     73 H21          1.9500     2.8220     4.2710 ha         1 Z74       0.120000
     74 H23          5.9650     3.4610     2.9600 ha         1 Z74       0.132000
     75 H25          5.2110     1.3690     6.6080 ha         1 Z74       0.120000
     76 H26          0.3660    -0.6670     9.8480 h1         1 Z74       0.032200
     77 H26A         0.7610    -2.2900     9.2480 h1         1 Z74       0.032200
     78 H27          3.8200    -2.2840    11.5640 h1         1 Z74       0.030200
     79 H27A         3.0460    -3.3600    10.3840 h1         1 Z74       0.030200
     80 H28          4.3510    -0.6720     9.8150 h1         1 Z74       0.030200
     81 H28A         4.9410    -2.2640     9.3070 h1         1 Z74       0.030200
     82 H30          3.9860    -0.1120    13.3720 ha         1 Z74       0.121500
     83 H31          4.9020     2.1590    13.6540 ha         1 Z74       0.110500
     84 H32          3.5900     4.1160    12.9310 ha         1 Z74       0.104000
     85 H33          1.3620     3.8020    11.9190 ha         1 Z74       0.110500
     86 H34          0.4490     1.5300    11.6350 ha         1 Z74       0.121500
     87 S1           1.5050    -1.0510    12.2880 sy         1 Z74       1.057200
     88 F2           3.4450     3.8140     2.3710 f          1 Z74      -0.127400
@<TRIPOS>BOND
     1     1     5 ar  
     2     1    16 ar  
     3     1    45 1   
     4     2    34 1   
     5     3    17 1   
     6     3    26 1   
     7     3    46 1   
     8     4    87 2   
     9     5     8 ar  
    10     5    18 1   
    11     6    18 1   
    12     6    19 1   
    13     6    20 1   
    14     7    87 2   
    15     8    11 ar  
    16     8    47 1   
    17     9    36 1   
    18     9    37 1   
    19     9    87 1   
    20    10    18 2   
    21    11    14 ar  
    22    11    17 1   
    23    12    28 1   
    24    12    38 1   
    25    12    48 1   
    26    13    17 2   
    27    14    16 ar  
    28    14    49 1   
    29    15    27 1   
    30    15    50 1   
    31    16    25 1   
    32    19    23 1   
    33    19    51 1   
    34    19    52 1   
    35    20    21 1   
    36    20    53 1   
    37    20    54 1   
    38    21    22 1   
    39    21    55 1   
    40    21    56 1   
    41    22    57 1   
    42    22    58 1   
    43    22    59 1   
    44    23    24 1   
    45    23    60 1   
    46    23    61 1   
    47    24    62 1   
    48    24    63 1   
    49    24    64 1   
    50    25    65 1   
    51    25    66 1   
    52    25    67 1   
    53    26    27 1   
    54    26    29 1   
    55    26    68 1   
    56    27    28 1   
    57    27    69 1   
    58    28    36 1   
    59    28    70 1   
    60    29    30 1   
    61    29    71 1   
    62    29    72 1   
    63    30    31 ar  
    64    30    35 ar  
    65    31    32 ar  
    66    31    73 1   
    67    32    33 ar  
    68    32    88 1   
    69    33    34 ar  
    70    33    74 1   
    71    34    35 ar  
    72    35    75 1   
    73    36    76 1   
    74    36    77 1   
    75    37    38 1   
    76    37    78 1   
    77    37    79 1   
    78    38    80 1   
    79    38    81 1   
    80    39    40 ar  
    81    39    44 ar  
    82    39    87 1   
    83    40    41 ar  
    84    40    82 1   
    85    41    42 ar  
    86    41    83 1   
    87    42    43 ar  
    88    42    84 1   
    89    43    44 ar  
    90    43    85 1   
    91    44    86 1   
@<TRIPOS>SUBSTRUCTURE
     1 Z74         1 TEMP              0 ****  ****    0 ROOT
