@<TRIPOS>MOLECULE
molecule
   88    91     1     0     0
SMALL
bcc


@<TRIPOS>ATOM
      1 C1           0.0000     0.0000     0.0000 ca         1 Z74      -0.102000
      2 F1           7.0650     2.2100     4.9720 f          1 Z74      -0.137900
      3 N1           1.4300    -0.0060     4.8570 ns         1 Z74      -0.584900
      4 O1           0.0920    -0.9090    12.2230 o          1 Z74      -0.633300
      5 C2           1.3970     0.0000     0.0000 ca         1 Z74      -0.144600
      6 N2           1.7700    -0.8330    -2.2720 n          1 Z74      -0.487800
      7 O2           2.1590    -1.8700    13.2470 o          1 Z74      -0.633300
      8 C3           2.0910     0.0000     1.2080 ca         1 Z74      -0.021000
      9 N3           1.9900    -1.5950    10.8010 n3         1 Z74      -0.820500
     10 O3           3.0790     0.7550    -1.4370 o          1 Z74      -0.592100
     11 C4           1.3850    -0.0020     2.4090 ca         1 Z74      -0.151600
     12 N4           3.2280    -1.5920     8.3050 n7         1 Z74      -0.804200
     13 O4           3.3290    -0.0040     3.7070 o          1 Z74      -0.592100
     14 C5          -0.0120    -0.0020     2.3950 ca         1 Z74      -0.093000
     15 O5           0.1250     0.2190     7.4310 oh         1 Z74      -0.604800
     16 C6          -0.6920    -0.0010     1.1940 ca         1 Z74      -0.101300
     17 C7           2.1140    -0.0040     3.6960 c          1 Z74       0.673700
     18 C8           2.1370     0.0020    -1.2800 c          1 Z74       0.674700
     19 C9           2.5800    -0.9250    -3.4900 c3         1 Z74       0.100000
     20 C10          0.5600    -1.6470    -2.1340 c3         1 Z74       0.100000
     21 C11         -0.6000    -0.9660    -2.8620 c3         1 Z74      -0.109900
     22 C12         -1.8920    -1.7440    -2.6040 c3         1 Z74      -0.093600
     23 C13          3.6400    -2.0120    -3.3160 c3         1 Z74      -0.109900
     24 C14          4.4860    -2.1090    -4.5870 c3         1 Z74      -0.093600
     25 C15         -2.1990     0.0040     1.1870 c3         1 Z74      -0.046800
     26 C16          2.1510    -0.0070     6.1320 c3         1 Z74       0.121700
     27 C17          1.2640    -0.6180     7.2190 c3         1 Z74       0.136100
     28 C18          2.0600    -0.7350     8.5210 c3         1 Z74       0.132500
     29 C19          2.5120     1.4290     6.5170 c3         1 Z74      -0.043100
     30 C20          3.4830     1.9890     5.5100 ca         1 Z74      -0.018300
     31 C21          3.0130     2.6510     4.3910 ca         1 Z74      -0.174000
     32 C22          3.9050     3.1670     3.4650 ca         1 Z74       0.165900
     33 C23          5.2670     3.0190     3.6600 ca         1 Z74      -0.207000
     34 C24          5.7370     2.3560     4.7800 ca         1 Z74       0.165900
     35 C25          4.8430     1.8460     5.7080 ca         1 Z74      -0.174000
     36 C26          1.1690    -1.3520     9.6040 c3         1 Z74       0.201800
     37 C27          3.2540    -2.3280    10.6410 c3         1 Z74       0.193800
     38 C28          4.0580    -1.6700     9.5140 c3         1 Z74       0.141800
     39 C29          2.1600     0.5710    12.4890 ca         1 Z74      -0.319500
     40 C30          3.4090     0.7480    13.0540 ca         1 Z74      -0.029000
     41 C31          3.9230     2.0210    13.2120 ca         1 Z74      -0.149500
     42 C32          3.1880     3.1180    12.8050 ca         1 Z74      -0.072000
     43 C33          1.9380     2.9420    12.2400 ca         1 Z74      -0.149500
     44 C34          1.4270     1.6690    12.0780 ca         1 Z74      -0.029000
     45 H1          -0.5410     0.0000    -0.9390 ha         1 Z74       0.154000
     46 HN1          0.4300    -0.0500     4.8480 hn         1 Z74       0.311500
     47 H3           3.1740     0.0000     1.2130 ha         1 Z74       0.176000
     48 HN4          2.9250    -2.5100     8.0470 hn         1 Z74       0.356800
     49 H5          -0.5620    -0.0030     3.3280 ha         1 Z74       0.124000
     50 HO5         -0.6620    -0.2840     7.3030 ho         1 Z74       0.405000
     51 H9           1.9420    -1.1730    -4.3290 h1         1 Z74       0.059700
     52 H9A          3.0650     0.0260    -3.6740 h1         1 Z74       0.059700
     53 H10          0.7330    -2.6260    -2.5660 h1         1 Z74       0.059700
     54 H10A         0.3150    -1.7540    -1.0840 h1         1 Z74       0.059700
     55 H11         -0.3970    -0.9460    -3.9250 hc         1 Z74       0.050200
     56 H11A        -0.7100     0.0480    -2.4960 hc         1 Z74       0.050200
     57 H12         -1.7510    -2.4110    -1.7620 hc         1 Z74       0.036033
     58 H12A        -2.6940    -1.0500    -2.3850 hc         1 Z74       0.036033
     59 H12B        -2.1460    -2.3230    -3.4840 hc         1 Z74       0.036033
     60 H13          4.2780    -1.7640    -2.4760 hc         1 Z74       0.050200
     61 H13A         3.1550    -2.9640    -3.1320 hc         1 Z74       0.050200
     62 H14          5.2650    -2.8490    -4.4470 hc         1 Z74       0.036033
     63 H14A         4.9370    -1.1450    -4.7950 hc         1 Z74       0.036033
     64 H14B         3.8570    -2.4000    -5.4190 hc         1 Z74       0.036033
     65 H15         -2.5640     0.3980     2.1280 hc         1 Z74       0.045033
     66 H15A        -2.5630    -1.0080     1.0540 hc         1 Z74       0.045033
     67 H15B        -2.5540     0.6260     0.3740 hc         1 Z74       0.045033
     68 H16          3.0570    -0.5930     6.0340 h1         1 Z74       0.110700
     69 H17          0.9360    -1.6020     6.9070 h1         1 Z74       0.040700
     70 H18          2.3870     0.2480     8.8400 h1         1 Z74       0.088700
     71 H19          2.9660     1.4360     7.5000 hc         1 Z74       0.062700
     72 H19A         1.6140     2.0360     6.5290 hc         1 Z74       0.062700
     73 H21          1.9500     2.8220     4.2710 ha         1 Z74       0.143500
     74 H23          5.9650     3.4610     2.9600 ha         1 Z74       0.156000
     75 H25          5.2110     1.3690     6.6080 ha         1 Z74       0.143500
     76 H26          0.3660    -0.6670     9.8480 h1         1 Z74       0.063700
     77 H26A         0.7610    -2.2900     9.2480 h1         1 Z74       0.063700
     78 H27          3.8200    -2.2840    11.5640 h1         1 Z74       0.063700
     79 H27A         3.0460    -3.3600    10.3840 h1         1 Z74       0.063700
     80 H28          4.3510    -0.6720     9.8150 h1         1 Z74       0.066200
     81 H28A         4.9410    -2.2640     9.3070 h1         1 Z74       0.066200
     82 H30          3.9860    -0.1120    13.3720 ha         1 Z74       0.148500
     83 H31          4.9020     2.1590    13.6540 ha         1 Z74       0.138500
     84 H32          3.5900     4.1160    12.9310 ha         1 Z74       0.135000
     85 H33          1.3620     3.8020    11.9190 ha         1 Z74       0.138500
     86 H34          0.4490     1.5300    11.6350 ha         1 Z74       0.148500
     87 S1           1.5050    -1.0510    12.2880 sy         1 Z74       1.427200
     88 F2           3.4450     3.8140     2.3710 f          1 Z74      -0.137900
@<TRIPOS>BOND
     1     5     1 ar
     2     1    16 ar
     3     1    45 1
     4     2    34 1
     5    26     3 1
     6     3    17 1
     7     3    46 1
     8     4    87 2
     9    39    87 1
    10    87     9 1
    11    87     7 2
    12    18     5 1
    13     8     5 ar
    14    88    32 1
    15    20     6 1
    16    19     6 1
    17     6    18 1
    18     8    11 ar
    19     8    47 1
    20    36     9 1
    21     9    37 1
    22    18    10 2
    23    17    11 1
    24    11    14 ar
    25    28    12 1
    26    12    38 1
    27    12    48 1
    28    13    17 2
    29    14    16 ar
    30    14    49 1
    31    15    27 1
    32    15    50 1
    33    16    25 1
    34    23    19 1
    35    19    51 1
    36    19    52 1
    37    21    20 1
    38    20    53 1
    39    20    54 1
    40    21    22 1
    41    21    55 1
    42    21    56 1
    43    22    57 1
    44    22    58 1
    45    22    59 1
    46    23    24 1
    47    23    60 1
    48    23    61 1
    49    24    62 1
    50    24    63 1
    51    24    64 1
    52    25    65 1
    53    25    66 1
    54    25    67 1
    55    29    26 1
    56    26    27 1
    57    26    68 1
    58    27    28 1
    59    27    69 1
    60    36    28 1
    61    28    70 1
    62    30    29 1
    63    29    71 1
    64    29    72 1
    65    31    30 ar
    66    35    30 ar
    67    32    31 ar
    68    31    73 1
    69    33    32 ar
    70    33    34 ar
    71    33    74 1
    72    34    35 ar
    73    35    75 1
    74    36    76 1
    75    36    77 1
    76    37    38 1
    77    37    78 1
    78    37    79 1
    79    38    80 1
    80    38    81 1
    81    40    39 ar
    82    39    44 ar
    83    41    40 ar
    84    40    82 1
    85    41    42 ar
    86    41    83 1
    87    42    43 ar
    88    42    84 1
    89    43    44 ar
    90    43    85 1
    91    44    86 1
@<TRIPOS>SUBSTRUCTURE
     1 Z74         1 TEMP              0 ****  ****    0 ROOT
