@<TRIPOS>MOLECULE
Z75
   88    91     1     0     0
SMALL
bcc


@<TRIPOS>ATOM
      1 C1           0.0000     0.0000     0.0000 ca         1 Z75      -0.086000
      2 F1           3.4450     3.8160     2.3660 f          1 Z75      -0.128900
      3 N1           1.8120    -0.8820    -2.2470 n          1 Z75      -0.149800
      4 O1           3.0390     0.7930    -1.4610 o          1 Z75      -0.630100
      5 C2           1.3970     0.0000     0.0000 ca         1 Z75      -0.149600
      6 F2           7.0660     2.2140     4.9690 f          1 Z75      -0.128900
      7 N2           1.4290     0.0010     4.8570 ns         1 Z75      -0.198900
      8 O2           3.3280     0.0000     3.7060 o          1 Z75      -0.635100
      9 C3           2.0910     0.0000     1.2080 ca         1 Z75       0.013000
     10 N3           3.2300    -1.5850     8.3050 n7         1 Z75      -0.579200
     11 O3           0.1250     0.2270     7.4300 oh         1 Z75      -0.580800
     12 C4           1.3850     0.0010     2.4090 ca         1 Z75      -0.159600
     13 N4           1.9520    -1.4820    10.8470 n3         1 Z75      -0.525600
     14 C5          -0.0120     0.0010     2.3960 ca         1 Z75      -0.075000
     15 C6          -0.6940     0.0010     1.1940 ca         1 Z75      -0.104300
     16 C7           2.1360    -0.0010    -1.2800 c          1 Z75       0.607700
     17 C8           2.4910    -0.8330    -3.5430 c3         1 Z75       0.038000
     18 C9           0.7780    -1.8910    -2.0000 c3         1 Z75       0.038000
     19 C10         -0.5070    -1.4930    -2.7280 c3         1 Z75      -0.056900
     20 C11         -1.6300    -2.4600    -2.3470 c3         1 Z75       0.009400
     21 C12          3.7580    -1.6880    -3.4880 c3         1 Z75      -0.056900
     22 C13          4.4680    -1.6360    -4.8420 c3         1 Z75       0.009400
     23 C14         -2.2000     0.0070     1.1870 c3         1 Z75       0.065200
     24 C15          2.1130    -0.0000     3.6960 c          1 Z75       0.595700
     25 C16          2.1500    -0.0000     6.1330 c3         1 Z75       0.009700
     26 C17          1.2640    -0.6090     7.2200 c3         1 Z75       0.183100
     27 C18          2.5120     1.4370     6.5140 c3         1 Z75       0.009900
     28 C19          3.4830     1.9950     5.5070 ca         1 Z75      -0.023300
     29 C20          3.0130     2.6570     4.3870 ca         1 Z75      -0.140000
     30 C21          3.9050     3.1700     3.4610 ca         1 Z75       0.140400
     31 C22          5.2680     3.0220     3.6560 ca         1 Z75      -0.165000
     32 C23          5.7360     2.3600     4.7770 ca         1 Z75       0.140400
     33 C24          4.8440     1.8520     5.7060 ca         1 Z75      -0.140000
     34 C25          2.0590    -0.7240     8.5210 c3         1 Z75       0.092500
     35 C26          1.1740    -1.3370     9.6090 c3         1 Z75       0.117800
     36 C28          3.1240    -2.3420    10.6310 c3         1 Z75       0.096800
     37 C29          4.0100    -1.7310     9.5430 c3         1 Z75       0.150800
     38 C31          1.8710    -1.9050    13.2380 ca         1 Z75      -0.095300
     39 C32          1.7770    -0.7650    14.0140 ca         1 Z75      -0.091000
     40 C33          2.4710    -0.6810    15.2070 ca         1 Z75      -0.100000
     41 C34          3.2600    -1.7380    15.6230 ca         1 Z75      -0.098000
     42 C35          3.3540    -2.8770    14.8470 ca         1 Z75      -0.100000
     43 C36          2.6550    -2.9640    13.6580 ca         1 Z75      -0.091000
     44 H1          -0.5400     0.0000    -0.9390 ha         1 Z75       0.131000
     45 HN2          0.4290    -0.0270     4.8490 hn         1 Z75       0.177500
     46 H3           3.1740    -0.0000     1.2130 ha         1 Z75       0.143000
     47 HN3          2.9290    -2.4870     7.9930 hn         1 Z75       0.251800
     48 HO3         -0.6620    -0.2870     7.3530 ho         1 Z75       0.389000
     49 H5          -0.5620     0.0020     3.3290 ha         1 Z75       0.103000
     50 H8           2.7580     0.1920    -3.7720 h1         1 Z75       0.033700
     51 H8A          1.8310    -1.2140    -4.3120 h1         1 Z75       0.033700
     52 H9           1.1170    -2.8520    -2.3660 h1         1 Z75       0.033700
     53 H9A          0.5850    -1.9570    -0.9360 h1         1 Z75       0.033700
     54 H10         -0.7860    -0.4860    -2.4430 hc         1 Z75       0.022950
     55 H10A        -0.3440    -1.5340    -3.7980 hc         1 Z75       0.022950
     56 H11         -1.6660    -3.2720    -3.0630 hc         1 Z75       0.002700
     57 H11A        -2.5760    -1.9330    -2.3500 hc         1 Z75       0.002700
     58 H11B        -1.4420    -2.8590    -1.3570 hc         1 Z75       0.002700
     59 H12          4.4190    -1.3070    -2.7190 hc         1 Z75       0.022950
     60 H12A         3.4920    -2.7130    -3.2590 hc         1 Z75       0.022950
     61 H13          5.3660    -2.2400    -4.8020 hc         1 Z75       0.002700
     62 H13A         4.7320    -0.6110    -5.0720 hc         1 Z75       0.002700
     63 H13B         3.8080    -2.0190    -5.6110 hc         1 Z75       0.002700
     64 H14         -2.5650    -1.0130     1.2150 hc         1 Z75       0.008700
     65 H14A        -2.5550     0.4930     0.2860 hc         1 Z75       0.008700
     66 H14B        -2.5630     0.5440     2.0540 hc         1 Z75       0.008700
     67 H16          3.0560    -0.5860     6.0350 h1         1 Z75       0.085700
     68 H17          0.9360    -1.5940     6.9090 h1         1 Z75       0.002700
     69 H18          2.9670     1.4460     7.4970 hc         1 Z75       0.036700
     70 H18A         1.6150     2.0440     6.5260 hc         1 Z75       0.036700
     71 H20          1.9500     2.8280     4.2670 ha         1 Z75       0.121000
     72 H22          5.9660     3.4640     2.9560 ha         1 Z75       0.132000
     73 H24          5.2120     1.3790     6.6080 ha         1 Z75       0.121000
     74 H25          2.3890     0.2580     8.8370 h1         1 Z75       0.071700
     75 H26          0.3260    -0.6880     9.7910 h1         1 Z75       0.015200
     76 H26A         0.8270    -2.3110     9.2860 h1         1 Z75       0.015200
     77 H28          3.6880    -2.4200    11.5530 h1         1 Z75       0.022200
     78 H28A         2.7950    -3.3260    10.3180 h1         1 Z75       0.022200
     79 H29          4.3570    -0.7570     9.8670 h1         1 Z75       0.032200
     80 H29A         4.8570    -2.3810     9.3610 h1         1 Z75       0.032200
     81 H30          0.2070    -1.4080    12.0060 h1         1 Z75       0.012200
     82 H30A         0.8590    -3.0310    11.7410 h1         1 Z75       0.012200
     83 H32          1.1590     0.0630    13.6880 ha         1 Z75       0.106500
     84 H33          2.3980     0.2120    15.8150 ha         1 Z75       0.103500
     85 H34          3.8060    -1.6710    16.5560 ha         1 Z75       0.103000
     86 H35          3.9700    -3.7060    15.1750 ha         1 Z75       0.103500
     87 H36          2.7290    -3.8580    13.0500 ha         1 Z75       0.106500
     88 C30          1.1140    -1.9970    11.9380 c3         1 Z75       0.213100
@<TRIPOS>BOND
     1     1     5 ar  
     2     1    15 ar  
     3     1    44 1   
     4     2    30 1   
     5     3    16 1   
     6     3    17 1   
     7     3    18 1   
     8     4    16 2   
     9     5     9 ar  
    10     5    16 1   
    11     6    32 1   
    12     7    24 1   
    13     7    25 1   
    14     7    45 1   
    15     8    24 2   
    16     9    12 ar  
    17     9    46 1   
    18    10    34 1   
    19    10    37 1   
    20    10    47 1   
    21    11    26 1   
    22    11    48 1   
    23    12    14 ar  
    24    12    24 1   
    25    13    35 1   
    26    13    36 1   
    27    13    88 1   
    28    14    15 ar  
    29    14    49 1   
    30    15    23 1   
    31    17    21 1   
    32    17    50 1   
    33    17    51 1   
    34    18    19 1   
    35    18    52 1   
    36    18    53 1   
    37    19    20 1   
    38    19    54 1   
    39    19    55 1   
    40    20    56 1   
    41    20    57 1   
    42    20    58 1   
    43    21    22 1   
    44    21    59 1   
    45    21    60 1   
    46    22    61 1   
    47    22    62 1   
    48    22    63 1   
    49    23    64 1   
    50    23    65 1   
    51    23    66 1   
    52    25    26 1   
    53    25    27 1   
    54    25    67 1   
    55    26    34 1   
    56    26    68 1   
    57    27    28 1   
    58    27    69 1   
    59    27    70 1   
    60    28    29 ar  
    61    28    33 ar  
    62    29    30 ar  
    63    29    71 1   
    64    30    31 ar  
    65    31    32 ar  
    66    31    72 1   
    67    32    33 ar  
    68    33    73 1   
    69    34    35 1   
    70    34    74 1   
    71    35    75 1   
    72    35    76 1   
    73    36    37 1   
    74    36    77 1   
    75    36    78 1   
    76    37    79 1   
    77    37    80 1   
    78    38    39 ar  
    79    38    43 ar  
    80    38    88 1   
    81    39    40 ar  
    82    39    83 1   
    83    40    41 ar  
    84    40    84 1   
    85    41    42 ar  
    86    41    85 1   
    87    42    43 ar  
    88    42    86 1   
    89    43    87 1   
    90    81    88 1   
    91    82    88 1   
@<TRIPOS>SUBSTRUCTURE
     1 Z75         1 TEMP              0 ****  ****    0 ROOT
