@<TRIPOS>MOLECULE
molecule
   54    56     1     0     0
SMALL
bcc


@<TRIPOS>ATOM
      1 N1           0.0000     0.0000     0.0000 ns         1 Z77      -0.424100
      2 N2           2.0220     0.4890    -1.0600 n          1 Z77      -0.398800
      3 N3           4.2890    -2.2690    -3.6620 ns         1 Z77      -0.425100
      4 CAA         -4.2830    -2.7510     3.2540 c3         1 Z77       0.130700
      5 OAE          2.4420     3.2290    -1.8900 oh         1 Z77      -0.600800
      6 SAF          2.2040    -0.6200     1.3460 s          1 Z77      -0.720400
      7 CAG         -0.9570    -0.3950     3.5290 ca         1 Z77      -0.086000
      8 CAH         -0.2660     0.0000     2.4000 ca         1 Z77      -0.123000
      9 CAI         -2.0800    -1.1920     3.4100 ca         1 Z77      -0.221000
     10 CAJ         -1.8270    -1.2010     1.0220 ca         1 Z77      -0.178000
     11 CAK          4.8840    -4.3640    -0.6900 ca         1 Z77      -0.057000
     12 CAL          4.9730    -4.5720    -3.4680 ca         1 Z77      -0.184000
     13 CAM          4.1800    -1.9790    -0.8790 cc         1 Z77       0.026800
     14 CAO          1.2930     1.1200    -2.1630 c3         1 Z77       0.075000
     15 CAP          3.4830     0.3890    -1.1100 c3         1 Z77       0.174200
     16 OAS         -3.6240    -2.3760     2.0430 os         1 Z77      -0.332900
     17 CAT          1.3480     0.0000     0.0000 cs         1 Z77       0.611400
     18 CAU          5.2380    -5.5420    -1.2840 ca         1 Z77      -0.120300
     19 CAV          5.2850    -5.6490    -2.6680 ca         1 Z77      -0.027300
     20 CAW         -0.6990    -0.4010     1.1430 ca         1 Z77       0.073600
     21 CAX         -2.5200    -1.5920     2.1570 ca         1 Z77       0.143100
     22 CAY          3.8750    -0.9420    -1.6980 cd         1 Z77      -0.258400
     23 CAZ          3.9340    -1.1010    -3.0990 c          1 Z77       0.706700
     24 CBA          4.5580    -3.2580    -1.4840 ca         1 Z77      -0.142800
     25 CBB          4.6060    -3.3640    -2.8860 ca         1 Z77       0.087600
     26 HN1         -0.5000     0.2430    -0.8320 hn         1 Z77       0.323500
     27 HN3          4.3240    -2.3450    -4.6600 hn         1 Z77       0.337500
     28 HAA         -3.5950    -3.3050     3.8820 h1         1 Z77       0.040700
     29 HAAA        -4.6130    -1.8620     3.7760 h1         1 Z77       0.040700
     30 HAAB        -5.1390    -3.3720     3.0220 h1         1 Z77       0.040700
     31 HAB          5.5140    -6.4630     0.6150 hc         1 Z77       0.043700
     32 HABA         4.9050    -7.5450    -0.6440 hc         1 Z77       0.043700
     33 HABB         6.6030    -7.0480    -0.6500 hc         1 Z77       0.043700
     34 HAC          5.6450    -6.8640    -4.3790 hc         1 Z77       0.047367
     35 HACA         6.6900    -7.2160    -2.9950 hc         1 Z77       0.047367
     36 HACB         4.9990    -7.7360    -2.9820 hc         1 Z77       0.047367
     37 HOAE         2.3460     4.1660    -1.9410 ho         1 Z77       0.406000
     38 HAG         -0.6160    -0.0830     4.5090 ha         1 Z77       0.137000
     39 HAH          0.6150     0.6240     2.4960 ha         1 Z77       0.171000
     40 HAI         -2.6210    -1.4990     4.2970 ha         1 Z77       0.133000
     41 HAJ         -2.1690    -1.5120     0.0430 ha         1 Z77       0.140000
     42 HAK          4.7600    -4.3150     0.3850 ha         1 Z77       0.148000
     43 HAL          5.0960    -4.6410    -4.5420 ha         1 Z77       0.137000
     44 HAM          4.3650    -1.8020     0.1730 ha         1 Z77       0.176000
     45 HAN          0.6830     2.7650    -0.9220 h1         1 Z77       0.029700
     46 HANA         0.5360     3.0690    -2.6590 h1         1 Z77       0.029700
     47 HAO          0.3100     0.6730    -2.2490 h1         1 Z77       0.078700
     48 HAOA         1.8390     0.9730    -3.0880 h1         1 Z77       0.078700
     49 HAP          3.8850     0.4730    -0.1080 h1         1 Z77       0.098200
     50 HAPA         3.8790     1.1870    -1.7270 h1         1 Z77       0.098200
     51 CAB          5.5900    -6.7330    -0.4310 c3         1 Z77      -0.042800
     52 CAC          5.6830    -6.9580    -3.3000 c3         1 Z77      -0.051800
     53 OAD          3.6550    -0.1560    -3.8170 o          1 Z77      -0.673500
     54 CAN          1.1500     2.6180    -1.8880 c3         1 Z77       0.119400
@<TRIPOS>BOND
     1     1    20 1
     2     1    17 1
     3     1    26 1
     4    15     2 1
     5     2    17 1
     6     2    14 1
     7    25     3 1
     8     3    23 1
     9     3    27 1
    10    16     4 1
    11     4    28 1
    12     4    29 1
    13     4    30 1
    14    51    18 1
    15    51    31 1
    16    51    32 1
    17    51    33 1
    18    52    19 1
    19    52    34 1
    20    52    35 1
    21    52    36 1
    22    23    53 2
    23    54     5 1
    24     5    37 1
    25    17     6 2
    26     8     7 ar
    27     7     9 ar
    28     7    38 1
    29     8    20 ar
    30     8    39 1
    31     9    21 ar
    32     9    40 1
    33    20    10 ar
    34    10    21 ar
    35    10    41 1
    36    18    11 ar
    37    11    24 ar
    38    11    42 1
    39    19    12 ar
    40    12    25 ar
    41    12    43 1
    42    24    13 1
    43    13    22 2
    44    13    44 1
    45    54    14 1
    46    54    45 1
    47    54    46 1
    48    14    47 1
    49    14    48 1
    50    22    15 1
    51    15    49 1
    52    15    50 1
    53    21    16 1
    54    19    18 ar
    55    23    22 1
    56    25    24 ar
@<TRIPOS>SUBSTRUCTURE
     1 Z77         1 TEMP              0 ****  ****    0 ROOT
