@<TRIPOS>MOLECULE
Z77
   54    56     1     0     0
SMALL
bcc


@<TRIPOS>ATOM
      1 N1           0.0000     0.0000     0.0000 ns         1 Z77       0.069900
      2 N2           2.0220     0.4890    -1.0600 n          1 Z77       0.018200
      3 N3           4.2890    -2.2690    -3.6620 ns         1 Z77       0.052900
      4 CAA         -4.2830    -2.7510     3.2540 c3         1 Z77       0.244700
      5 OAE          2.4420     3.2290    -1.8900 oh         1 Z77      -0.582800
      6 SAF          2.2040    -0.6200     1.3460 s          1 Z77      -0.744400
      7 CAG         -0.9570    -0.3950     3.5290 ca         1 Z77      -0.050000
      8 CAH         -0.2660     0.0000     2.4000 ca         1 Z77      -0.105000
      9 CAI         -2.0800    -1.1920     3.4100 ca         1 Z77      -0.204000
     10 CAJ         -1.8270    -1.2010     1.0220 ca         1 Z77      -0.154000
     11 CAK          4.8840    -4.3640    -0.6900 ca         1 Z77      -0.026000
     12 CAL          4.9730    -4.5720    -3.4680 ca         1 Z77      -0.156000
     13 CAM          4.1800    -1.9790    -0.8790 cc         1 Z77       0.054800
     14 CAO          1.2930     1.1200    -2.1630 c3         1 Z77      -0.027000
     15 CAP          3.4830     0.3890    -1.1100 c3         1 Z77       0.090200
     16 OAS         -3.6240    -2.3760     2.0430 os         1 Z77      -0.311900
     17 CAT          1.3480     0.0000     0.0000 cs         1 Z77       0.276400
     18 CAU          5.2380    -5.5420    -1.2840 ca         1 Z77      -0.124300
     19 CAV          5.2850    -5.6490    -2.6680 ca         1 Z77      -0.032300
     20 CAW         -0.6990    -0.4010     1.1430 ca         1 Z77      -0.088400
     21 CAX         -2.5200    -1.5920     2.1570 ca         1 Z77       0.152100
     22 CAY          3.8750    -0.9420    -1.6980 cd         1 Z77      -0.270400
     23 CAZ          3.9340    -1.1010    -3.0990 c          1 Z77       0.607700
     24 CBA          4.5580    -3.2580    -1.4840 ca         1 Z77      -0.137800
     25 CBB          4.6060    -3.3640    -2.8860 ca         1 Z77      -0.076400
     26 HN1         -0.5000     0.2430    -0.8320 hn         1 Z77       0.163500
     27 HN3          4.3240    -2.3450    -4.6600 hn         1 Z77       0.173500
     28 HAA         -3.5950    -3.3050     3.8820 h1         1 Z77      -0.002633
     29 HAAA        -4.6130    -1.8620     3.7760 h1         1 Z77      -0.002633
     30 HAAB        -5.1390    -3.3720     3.0220 h1         1 Z77      -0.002633
     31 HAB          5.5140    -6.4630     0.6150 hc         1 Z77       0.009700
     32 HABA         4.9050    -7.5450    -0.6440 hc         1 Z77       0.009700
     33 HABB         6.6030    -7.0480    -0.6500 hc         1 Z77       0.009700
     34 HAC          5.6450    -6.8640    -4.3790 hc         1 Z77       0.012033
     35 HACA         6.6900    -7.2160    -2.9950 hc         1 Z77       0.012033
     36 HACB         4.9990    -7.7360    -2.9820 hc         1 Z77       0.012033
     37 HOAE         2.3460     4.1660    -1.9410 ho         1 Z77       0.396000
     38 HAG         -0.6160    -0.0830     4.5090 ha         1 Z77       0.105000
     39 HAH          0.6150     0.6240     2.4960 ha         1 Z77       0.157000
     40 HAI         -2.6210    -1.4990     4.2970 ha         1 Z77       0.119000
     41 HAJ         -2.1690    -1.5120     0.0430 ha         1 Z77       0.115000
     42 HAK          4.7600    -4.3150     0.3850 ha         1 Z77       0.120000
     43 HAL          5.0960    -4.6410    -4.5420 ha         1 Z77       0.116000
     44 HAM          4.3650    -1.8020     0.1730 ha         1 Z77       0.150000
     45 HAN          0.6830     2.7650    -0.9220 h1         1 Z77      -0.007300
     46 HANA         0.5360     3.0690    -2.6590 h1         1 Z77      -0.007300
     47 HAO          0.3100     0.6730    -2.2490 h1         1 Z77       0.057700
     48 HAOA         1.8390     0.9730    -3.0880 h1         1 Z77       0.057700
     49 HAP          3.8850     0.4730    -0.1080 h1         1 Z77       0.072700
     50 HAPA         3.8790     1.1870    -1.7270 h1         1 Z77       0.072700
     51 CAB          5.5900    -6.7330    -0.4310 c3         1 Z77       0.065200
     52 CAC          5.6830    -6.9580    -3.3000 c3         1 Z77       0.055200
     53 OAD          3.6550    -0.1560    -3.8170 o          1 Z77      -0.721500
     54 CAN          1.1500     2.6180    -1.8880 c3         1 Z77       0.210400
@<TRIPOS>BOND
     1     1    17 1   
     2     1    20 1   
     3     1    26 1   
     4     2    14 1   
     5     2    15 1   
     6     2    17 1   
     7     3    23 1   
     8     3    25 1   
     9     3    27 1   
    10     4    16 1   
    11     4    28 1   
    12     4    29 1   
    13     4    30 1   
    14     5    37 1   
    15     5    54 1   
    16     6    17 2   
    17     7     8 ar  
    18     7     9 ar  
    19     7    38 1   
    20     8    20 ar  
    21     8    39 1   
    22     9    21 ar  
    23     9    40 1   
    24    10    20 ar  
    25    10    21 ar  
    26    10    41 1   
    27    11    18 ar  
    28    11    24 ar  
    29    11    42 1   
    30    12    19 ar  
    31    12    25 ar  
    32    12    43 1   
    33    13    22 2   
    34    13    24 1   
    35    13    44 1   
    36    14    47 1   
    37    14    48 1   
    38    14    54 1   
    39    15    22 1   
    40    15    49 1   
    41    15    50 1   
    42    16    21 1   
    43    18    19 ar  
    44    18    51 1   
    45    19    52 1   
    46    22    23 1   
    47    23    53 2   
    48    24    25 ar  
    49    31    51 1   
    50    32    51 1   
    51    33    51 1   
    52    34    52 1   
    53    35    52 1   
    54    36    52 1   
    55    45    54 1   
    56    46    54 1   
@<TRIPOS>SUBSTRUCTURE
     1 Z77         1 TEMP              0 ****  ****    0 ROOT
