@<TRIPOS>MOLECULE
Z78
   47    49     1     0     0
SMALL
bcc


@<TRIPOS>ATOM
      1 N1           0.0000     0.0000     0.0000 ns         1 Z78       0.053900
      2 N2           4.0760    -1.3750     1.0220 n          1 Z78      -0.154800
      3 N3           4.7810    -3.3740     1.9990 ns         1 Z78      -0.035100
      4 CAA         -2.8700     0.0030     4.8810 c3         1 Z78       0.068200
      5 OAB          4.1650    -1.6290     3.2270 o          1 Z78      -0.717100
      6 OAC          1.9390    -0.0000    -1.0630 o          1 Z78      -0.718500
      7 OAD          6.6300    -2.3600     0.0820 oh         1 Z78      -0.603800
      8 CAF          5.9130    -5.5240     5.3870 ca         1 Z78      -0.108000
      9 CAG          5.9510    -4.1430     5.4000 ca         1 Z78      -0.090000
     10 CAH          5.5010    -6.1970     4.2500 ca         1 Z78      -0.112000
     11 CAI          5.5760    -3.4270     4.2800 ca         1 Z78      -0.104000
     12 CAJ         -2.7850     0.0010     2.3780 ca         1 Z78      -0.046000
     13 CAK         -2.1010     0.0000     1.1810 ca         1 Z78      -0.150000
     14 CAL         -0.7340     0.0010     3.6100 ca         1 Z78      -0.035000
     15 CAM          1.4460     0.0020     2.3970 cc         1 Z78       0.041800
     16 CAN          5.7110    -1.6750    -0.7720 c3         1 Z78       0.200400
     17 CAO          4.2790    -1.9540    -0.3090 c3         1 Z78       0.010000
     18 CAP          3.5910     0.0010     1.1560 c3         1 Z78       0.142200
     19 CAS          4.3350    -2.1090     2.1230 c          1 Z78       0.592100
     20 CAT         -2.1000     0.0020     3.5860 ca         1 Z78      -0.123300
     21 CAU          5.1250    -5.4880     3.1240 ca         1 Z78       0.048900
     22 CAV          2.0840     0.0000     1.2020 cd         1 Z78      -0.255400
     23 CAW          5.1620    -4.0970     3.1360 ca         1 Z78      -0.082400
     24 CAX          1.3440     0.0000     0.0000 c          1 Z78       0.608700
     25 CAY         -0.0180     0.0000     2.4080 ca         1 Z78      -0.127800
     26 CAZ         -0.7090     0.0000     1.1820 ca         1 Z78      -0.082400
     27 HN1         -0.4930    -0.0000    -0.8710 hn         1 Z78       0.174500
     28 HN3          4.7990    -3.8120     1.0990 hn         1 Z78       0.188500
     29 HAA         -2.8220    -0.9810     5.3300 hc         1 Z78       0.008700
     30 HAAA        -3.9030     0.2620     4.6860 hc         1 Z78       0.008700
     31 HAAB        -2.4370     0.7300     5.5580 hc         1 Z78       0.008700
     32 HAF          6.2080    -6.0820     6.2680 ha         1 Z78       0.104000
     33 HAG          6.2740    -3.6200     6.2920 ha         1 Z78       0.104000
     34 HAH          5.4730    -7.2800     4.2420 ha         1 Z78       0.114000
     35 HAI          5.6060    -2.3450     4.2930 ha         1 Z78       0.163000
     36 HAJ         -3.8680     0.0010     2.3760 ha         1 Z78       0.107000
     37 HAK         -2.6440     0.0000     0.2440 ha         1 Z78       0.112000
     38 HAL         -0.2080     0.0900     4.5530 ha         1 Z78       0.115000
     39 HAM          1.9940     0.2280     3.3040 ha         1 Z78       0.130000
     40 HAN          5.8260    -2.0330    -1.7880 h1         1 Z78      -0.002800
     41 HAO          3.5810    -1.5090    -1.0070 h1         1 Z78       0.049700
     42 HAOA         4.1160    -3.0240    -0.2670 h1         1 Z78       0.049700
     43 HAP          3.9800     0.4330     2.0700 h1         1 Z78       0.041200
     44 HAPA         3.9270     0.5860     0.3090 h1         1 Z78       0.041200
     45 H19          7.4810    -2.3790    -0.3220 ho         1 Z78       0.398000
     46 H20          5.9040    -0.6100    -0.7290 h1         1 Z78      -0.002800
     47 FAE          4.7230    -6.1440     2.0140 f          1 Z78      -0.133900
@<TRIPOS>BOND
     1     1    24 1   
     2     1    26 1   
     3     1    27 1   
     4     2    17 1   
     5     2    18 1   
     6     2    19 1   
     7     3    19 1   
     8     3    23 1   
     9     3    28 1   
    10     4    20 1   
    11     4    29 1   
    12     4    30 1   
    13     4    31 1   
    14     5    19 2   
    15     6    24 2   
    16     7    16 1   
    17     7    45 1   
    18     8     9 ar  
    19     8    10 ar  
    20     8    32 1   
    21     9    11 ar  
    22     9    33 1   
    23    10    21 ar  
    24    10    34 1   
    25    11    23 ar  
    26    11    35 1   
    27    12    13 ar  
    28    12    20 ar  
    29    12    36 1   
    30    13    26 ar  
    31    13    37 1   
    32    14    20 ar  
    33    14    25 ar  
    34    14    38 1   
    35    15    22 2   
    36    15    25 1   
    37    15    39 1   
    38    16    17 1   
    39    16    40 1   
    40    16    46 1   
    41    17    41 1   
    42    17    42 1   
    43    18    22 1   
    44    18    43 1   
    45    18    44 1   
    46    21    23 ar  
    47    21    47 1   
    48    22    24 1   
    49    25    26 ar  
@<TRIPOS>SUBSTRUCTURE
     1 Z78         1 TEMP              0 ****  ****    0 ROOT
