@<TRIPOS>MOLECULE
molecule
   29    29     1     0     0
SMALL
bcc


@<TRIPOS>ATOM
      1 O4           0.0000     0.0000     0.0000 o          1 Z79      -0.563100
      2 C8           1.2120     0.0000     0.0000 c          1 Z79       0.667100
      3 N2           1.8860     0.0000     1.1680 ns         1 Z79      -0.472400
      4 O5           1.1770    -0.0010     2.3930 oh         1 Z79      -0.357100
      5 C7           1.9670    -0.0050    -1.3040 c3         1 Z79       0.172800
      6 N1           1.0160    -0.0100    -2.4180 n7         1 Z79      -0.904100
      7 S1           1.5310     0.3540    -3.9490 sy         1 Z79       1.431200
      8 O1           0.3970     0.2300    -4.7950 o          1 Z79      -0.633300
      9 O2           2.2940     1.5480    -3.8420 o          1 Z79      -0.633300
     10 C3           2.6560    -0.9120    -4.4360 ca         1 Z79      -0.360500
     11 C6           2.1860    -2.0390    -5.0840 ca         1 Z79       0.007500
     12 C5           3.0660    -3.0340    -5.4670 ca         1 Z79      -0.214000
     13 C4           4.4210    -2.9000    -5.2010 ca         1 Z79       0.194100
     14 O3           5.2880    -3.8760    -5.5770 os         1 Z79      -0.321900
     15 C9           6.6690    -3.6710    -5.2710 c3         1 Z79       0.126700
     16 C2           4.8890    -1.7670    -4.5510 ca         1 Z79      -0.214000
     17 C1           4.0060    -0.7740    -4.1750 ca         1 Z79       0.007500
     18 HN2          2.8860     0.0400     1.1680 hn         1 Z79       0.320500
     19 HO5          1.7840    -0.0980     3.1080 ho         1 Z79       0.401000
     20 H7           2.5900    -0.8900    -1.3570 h1         1 Z79       0.064200
     21 H7A          2.5900     0.8790    -1.3640 h1         1 Z79       0.064200
     22 HN1          0.0550    -0.2350    -2.2540 hn         1 Z79       0.481800
     23 H6           1.1280    -2.1430    -5.2910 ha         1 Z79       0.152000
     24 H5           2.6980    -3.9170    -5.9740 ha         1 Z79       0.147000
     25 H9           7.0170    -2.7690    -5.7600 h1         1 Z79       0.045700
     26 H9A          6.7900    -3.5710    -4.1990 h1         1 Z79       0.045700
     27 H9B          7.2460    -4.5180    -5.6210 h1         1 Z79       0.045700
     28 H2           5.9470    -1.6590    -4.3440 ha         1 Z79       0.147000
     29 H1           4.3720     0.1110    -3.6680 ha         1 Z79       0.152000
@<TRIPOS>BOND
     1     1     2 2
     2     2     3 1
     3     2     5 1
     4     3     4 1
     5     5     6 1
     6     6     7 1
     7     7     8 2
     8     7     9 2
     9     7    10 1
    10    10    11 ar
    11    10    17 ar
    12    11    12 ar
    13    12    13 ar
    14    13    14 1
    15    13    16 ar
    16    14    15 1
    17    16    17 ar
    18     3    18 1
    19     4    19 1
    20     5    20 1
    21     5    21 1
    22     6    22 1
    23    11    23 1
    24    12    24 1
    25    15    25 1
    26    15    26 1
    27    15    27 1
    28    16    28 1
    29    17    29 1
@<TRIPOS>SUBSTRUCTURE
     1 Z79         1 TEMP              0 ****  ****    0 ROOT
