@<TRIPOS>MOLECULE
Z80
   40    42     1     0     0
SMALL
bcc


@<TRIPOS>ATOM
      1 C1           0.0000     0.0000     0.0000 ca         1 Z80      -0.056300
      2 N1           1.3930     0.0000     0.0000 na         1 Z80       0.217900
      3 S1           0.0760    -1.1310     2.5010 ss         1 Z80      -0.354800
      4 C2          -0.7340    -0.4920     1.0740 ca         1 Z80       0.051900
      5 N2           3.2530     2.8310    -3.5320 n3         1 Z80      -0.545600
      6 C3           1.7110    -0.4880     2.3630 ca         1 Z80       0.050900
      7 C4           2.1820     0.0000     1.1490 ca         1 Z80      -0.041300
      8 C5          -2.0500     0.5120    -1.1480 ca         1 Z80      -0.057000
      9 C6          -2.7780     0.0180    -0.0810 ca         1 Z80      -0.131000
     10 C7          -2.1220    -0.4820     1.0290 ca         1 Z80      -0.033000
     11 C8           2.5320    -0.4730     3.4830 ca         1 Z80      -0.023000
     12 C9           3.8180     0.0280     3.3970 ca         1 Z80      -0.133000
     13 C10          4.2890     0.5140     2.1900 ca         1 Z80       0.007400
     14 C11          3.4770     0.5020     1.0700 ca         1 Z80      -0.176000
     15 C12          2.0750     0.0010    -1.2960 c3         1 Z80      -0.035700
     16 C13          2.3120     1.4450    -1.7460 c3         1 Z80      -0.084400
     17 C14          3.0250     1.4450    -3.1000 c3         1 Z80       0.156800
     18 C15          4.1990     3.5120    -2.6390 c3         1 Z80       0.181100
     19 C16          3.7170     2.8780    -4.9250 c3         1 Z80       0.181100
     20 Cl1          5.9030     1.1460     2.0820 cl         1 Z80      -0.028400
     21 H1          -2.5640     0.9050    -2.0170 ha         1 Z80       0.103000
     22 H2          -3.8600     0.0690    -0.0940 ha         1 Z80       0.109000
     23 H3           2.1630    -0.8530     4.4270 ha         1 Z80       0.119000
     24 H4           4.4560     0.0380     4.2720 ha         1 Z80       0.120000
     25 H5           3.8510     0.8840     0.1280 ha         1 Z80       0.137000
     26 H6           1.4610    -0.5090    -2.0280 h1         1 Z80       0.035700
     27 H7           3.0260    -0.5090    -1.2040 h1         1 Z80       0.035700
     28 H8           1.3610     1.9550    -1.8380 hc         1 Z80       0.040700
     29 H9           2.9270     1.9550    -1.0140 hc         1 Z80       0.040700
     30 H10          3.9760     0.9350    -3.0080 h1         1 Z80       0.009200
     31 H11          2.4110     0.9350    -3.8320 h1         1 Z80       0.009200
     32 H12          3.6700     3.8890    -1.7720 h1         1 Z80       0.002533
     33 H13          4.9630     2.8130    -2.3210 h1         1 Z80       0.002533
     34 H14          4.6630     4.3380    -3.1660 h1         1 Z80       0.002533
     35 H15          4.6470     2.3300    -5.0150 h1         1 Z80       0.002533
     36 H16          2.9710     2.4310    -5.5700 h1         1 Z80       0.002533
     37 H17          3.8760     3.9090    -5.2180 h1         1 Z80       0.002533
     38 C17         -0.6690     0.5030    -1.1110 ca         1 Z80      -0.168000
     39 H18         -2.6930    -0.8690     1.8640 ha         1 Z80       0.116000
     40 H20         -0.1050     0.8910    -1.9500 ha         1 Z80       0.129000
@<TRIPOS>BOND
     1     1     2 1   
     2     1     4 ar  
     3     1    38 ar  
     4     2     7 1   
     5     2    15 1   
     6     3     4 1   
     7     3     6 1   
     8     4    10 ar  
     9     5    17 1   
    10     5    18 1   
    11     5    19 1   
    12     6     7 ar  
    13     6    11 ar  
    14     7    14 ar  
    15     8     9 ar  
    16     8    21 1   
    17     8    38 ar  
    18     9    10 ar  
    19     9    22 1   
    20    10    39 1   
    21    11    12 ar  
    22    11    23 1   
    23    12    13 ar  
    24    12    24 1   
    25    13    14 ar  
    26    13    20 1   
    27    14    25 1   
    28    15    16 1   
    29    15    26 1   
    30    15    27 1   
    31    16    17 1   
    32    16    28 1   
    33    16    29 1   
    34    17    30 1   
    35    17    31 1   
    36    18    32 1   
    37    18    33 1   
    38    18    34 1   
    39    19    35 1   
    40    19    36 1   
    41    19    37 1   
    42    38    40 1   
@<TRIPOS>SUBSTRUCTURE
     1 Z80         1 TEMP              0 ****  ****    0 ROOT
