@<TRIPOS>MOLECULE
molecule
   40    42     1     0     0
SMALL
bcc


@<TRIPOS>ATOM
      1 C1           0.0000     0.0000     0.0000 ca         1 Z80       0.082700
      2 N1           1.3930     0.0000     0.0000 na         1 Z80      -0.194100
      3 S1           0.0760    -1.1310     2.5010 ss         1 Z80      -0.251800
      4 C2          -0.7340    -0.4920     1.0740 ca         1 Z80       0.016900
      5 N2           3.2530     2.8310    -3.5320 n3         1 Z80      -0.730600
      6 C3           1.7110    -0.4880     2.3630 ca         1 Z80       0.017900
      7 C4           2.1820     0.0000     1.1490 ca         1 Z80       0.095700
      8 C5          -2.0500     0.5120    -1.1480 ca         1 Z80      -0.094000
      9 C6          -2.7780     0.0180    -0.0810 ca         1 Z80      -0.153000
     10 C7          -2.1220    -0.4820     1.0290 ca         1 Z80      -0.076000
     11 C8           2.5320    -0.4730     3.4830 ca         1 Z80      -0.069000
     12 C9           3.8180     0.0280     3.3970 ca         1 Z80      -0.149000
     13 C10          4.2890     0.5140     2.1900 ca         1 Z80       0.059400
     14 C11          3.4770     0.5020     1.0700 ca         1 Z80      -0.179000
     15 C12          2.0750     0.0010    -1.2960 c3         1 Z80       0.048300
     16 C13          2.3120     1.4450    -1.7460 c3         1 Z80      -0.118400
     17 C14          3.0250     1.4450    -3.1000 c3         1 Z80       0.161800
     18 C15          4.1990     3.5120    -2.6390 c3         1 Z80       0.150100
     19 C16          3.7170     2.8780    -4.9250 c3         1 Z80       0.150100
     20 Cl1          5.9030     1.1460     2.0820 cl         1 Z80      -0.107400
     21 H1          -2.5640     0.9050    -2.0170 ha         1 Z80       0.134000
     22 H2          -3.8600     0.0690    -0.0940 ha         1 Z80       0.135000
     23 H3           2.1630    -0.8530     4.4270 ha         1 Z80       0.148000
     24 H4           4.4560     0.0380     4.2720 ha         1 Z80       0.148000
     25 H5           3.8510     0.8840     0.1280 ha         1 Z80       0.153000
     26 H6           1.4610    -0.5090    -2.0280 h1         1 Z80       0.060700
     27 H7           3.0260    -0.5090    -1.2040 h1         1 Z80       0.060700
     28 H8           1.3610     1.9550    -1.8380 hc         1 Z80       0.063700
     29 H9           2.9270     1.9550    -1.0140 hc         1 Z80       0.063700
     30 H10          3.9760     0.9350    -3.0080 h1         1 Z80       0.033200
     31 H11          2.4110     0.9350    -3.8320 h1         1 Z80       0.033200
     32 H12          3.6700     3.8890    -1.7720 h1         1 Z80       0.033367
     33 H13          4.9630     2.8130    -2.3210 h1         1 Z80       0.033367
     34 H14          4.6630     4.3380    -3.1660 h1         1 Z80       0.033367
     35 H15          4.6470     2.3300    -5.0150 h1         1 Z80       0.033367
     36 H16          2.9710     2.4310    -5.5700 h1         1 Z80       0.033367
     37 H17          3.8760     3.9090    -5.2180 h1         1 Z80       0.033367
     38 C17         -0.6690     0.5030    -1.1110 ca         1 Z80      -0.177000
     39 H18         -2.6930    -0.8690     1.8640 ha         1 Z80       0.142000
     40 H20         -0.1050     0.8910    -1.9500 ha         1 Z80       0.144000
@<TRIPOS>BOND
     1     1    38 ar
     2     2     1 1
     3     2     7 1
     4     4     1 ar
     5     4     3 1
     6     5    17 1
     7     6     3 1
     8     6    11 ar
     9     7     6 ar
    10     8     9 ar
    11     8    21 1
    12     8    38 ar
    13     9    10 ar
    14     9    22 1
    15    10     4 ar
    16    11    23 1
    17    12    11 ar
    18    12    24 1
    19    13    12 ar
    20    14     7 ar
    21    14    13 ar
    22    14    25 1
    23    15     2 1
    24    15    26 1
    25    15    27 1
    26    16    15 1
    27    16    28 1
    28    16    29 1
    29    17    16 1
    30    17    30 1
    31    17    31 1
    32    18     5 1
    33    18    32 1
    34    18    33 1
    35    18    34 1
    36    19     5 1
    37    19    35 1
    38    19    36 1
    39    19    37 1
    40    20    13 1
    41    10    39 1
    42    38    40 1
@<TRIPOS>SUBSTRUCTURE
     1 Z80         1 TEMP              0 ****  ****    0 ROOT
