@<TRIPOS>MOLECULE
Z81
   45    48     1     0     0
SMALL
bcc


@<TRIPOS>ATOM
      1 C1           0.0000     0.0000     0.0000 ca         1 Z81      -0.077000
      2 F1           6.3240    -1.8350    -0.2730 f          1 Z81      -0.113900
      3 N1          -2.5900    -3.2880     4.7380 nb         1 Z81      -0.547000
      4 O1          -2.7920     1.3610     3.1130 o          1 Z81      -0.527500
      5 C2           1.3800     0.0000     0.0000 ca         1 Z81      -0.058000
      6 F2           3.5820     1.8290     2.7350 f          1 Z81      -0.140900
      7 N2           0.2820     0.7730     4.7620 n2         1 Z81      -0.418900
      8 C3          -0.6940     0.0000     1.1970 ca         1 Z81      -0.090000
      9 N3          -1.3560     2.2750     4.6570 n          1 Z81      -0.039300
     10 C4           6.3290    -0.0170     1.2450 ca         1 Z81      -0.104000
     11 N4           0.5130     2.6640     6.1470 nz         1 Z81       0.205400
     12 C5           5.6380     0.9110     2.0040 ca         1 Z81      -0.103000
     13 C6          -1.3420    -1.4730     5.5380 ca         1 Z81      -0.221800
     14 C7          -1.9540    -1.6750     3.3040 ca         1 Z81      -0.221800
     15 C8           1.3700    -0.0000     2.4100 ca         1 Z81      -0.093000
     16 C9           4.2600    -0.9250     0.4420 ca         1 Z81      -0.100000
     17 C10         -1.9220    -2.7190     5.7220 ca         1 Z81       0.429700
     18 C11         -2.7110    -2.6600     3.5490 ca         1 Z81       0.429700
     19 C12          2.0750     0.0000     1.2080 cp         1 Z81      -0.023000
     20 C13          3.5580    -0.0010     1.2130 cp         1 Z81      -0.029000
     21 C14         -0.0100    -0.0050     2.3990 ca         1 Z81      -0.083300
     22 C15         -1.3740    -0.9720     4.3030 ca         1 Z81      -0.086300
     23 C16          5.6420    -0.9330     0.4660 ca         1 Z81       0.099900
     24 C17          4.2560     0.9240     1.9930 ca         1 Z81       0.091900
     25 C18         -1.7760     1.3450     3.7740 c          1 Z81       0.622500
     26 C19         -0.1550     1.9080     5.2120 c2         1 Z81       0.068800
     27 C20         -0.7020     0.2750     3.7870 c3         1 Z81       0.140800
     28 H1          -0.5420     0.0100    -0.9380 ha         1 Z81       0.122000
     29 H2           1.9210     0.0170    -0.9380 ha         1 Z81       0.123000
     30 H3          -1.7770     0.0000     1.1950 ha         1 Z81       0.132000
     31 H4           7.4120    -0.0300     1.2740 ha         1 Z81       0.131000
     32 HN4          0.1520     2.4630     7.0580 hn         1 Z81       0.228133
     33 HN4A         0.3840     3.6350     5.9430 hn         1 Z81       0.228133
     34 H5           6.2840     1.6030     2.5300 ha         1 Z81       0.128000
     35 H6          -0.7930    -1.0060     6.3470 ha         1 Z81       0.124500
     36 H7          -2.0310    -1.1540     2.3570 ha         1 Z81       0.124500
     37 H8           1.9050    -0.0520     3.3510 ha         1 Z81       0.126000
     38 H9           3.9410    -1.8510    -0.0200 ha         1 Z81       0.139000
     39 H10         -1.8270    -3.2250     6.6750 h4         1 Z81      -0.006400
     40 H11         -3.2600    -3.1290     2.7420 h4         1 Z81      -0.006400
     41 H21         -1.3060     4.2960     5.1540 h1         1 Z81       0.034700
     42 H21A        -2.7130     3.7880     4.2090 h1         1 Z81       0.034700
     43 H21B        -2.5990     3.3640     5.9230 h1         1 Z81       0.034700
     44 H43          1.4160     2.2660     6.3140 hn         1 Z81       0.228133
     45 C21         -2.0370     3.5090     5.0080 c3         1 Z81       0.066300
@<TRIPOS>BOND
     1     1     5 ar  
     2     1     8 ar  
     3     1    28 1   
     4     2    23 1   
     5     3    17 ar  
     6     3    18 ar  
     7     4    25 2   
     8     5    19 ar  
     9     5    29 1   
    10     6    24 1   
    11     7    26 2   
    12     7    27 1   
    13     8    21 ar  
    14     8    30 1   
    15     9    25 1   
    16     9    26 1   
    17     9    45 1   
    18    10    12 ar  
    19    10    23 ar  
    20    10    31 1   
    21    11    26 1   
    22    11    32 1   
    23    11    33 1   
    24    11    44 1   
    25    12    24 ar  
    26    12    34 1   
    27    13    17 ar  
    28    13    22 ar  
    29    13    35 1   
    30    14    18 ar  
    31    14    22 ar  
    32    14    36 1   
    33    15    19 ar  
    34    15    21 ar  
    35    15    37 1   
    36    16    20 ar  
    37    16    23 ar  
    38    16    38 1   
    39    17    39 1   
    40    18    40 1   
    41    19    20 1   
    42    20    24 ar  
    43    21    27 1   
    44    22    27 1   
    45    25    27 1   
    46    41    45 1   
    47    42    45 1   
    48    43    45 1   
@<TRIPOS>SUBSTRUCTURE
     1 Z81         1 TEMP              0 ****  ****    0 ROOT
