@<TRIPOS>MOLECULE
molecule
   45    48     1     0     0
SMALL
bcc


@<TRIPOS>ATOM
      1 C1           0.0000     0.0000     0.0000 ca         1 Z81      -0.113000
      2 F1           6.3240    -1.8350    -0.2730 f          1 Z81      -0.122900
      3 N1          -2.5900    -3.2880     4.7380 nb         1 Z81      -0.651000
      4 O1          -2.7920     1.3610     3.1130 o          1 Z81      -0.501500
      5 C2           1.3800     0.0000     0.0000 ca         1 Z81      -0.084000
      6 F2           3.5820     1.8290     2.7350 f          1 Z81      -0.155900
      7 N2           0.2820     0.7730     4.7620 n2         1 Z81      -0.524900
      8 C3          -0.6940     0.0000     1.1970 ca         1 Z81      -0.108000
      9 N3          -1.3560     2.2750     4.6570 n          1 Z81      -0.423300
     10 C4           6.3290    -0.0170     1.2450 ca         1 Z81      -0.140000
     11 N4           0.5130     2.6640     6.1470 nz         1 Z81      -0.731600
     12 C5           5.6380     0.9110     2.0040 ca         1 Z81      -0.139000
     13 C6          -1.3420    -1.4730     5.5380 ca         1 Z81      -0.237300
     14 C7          -1.9540    -1.6750     3.3040 ca         1 Z81      -0.237300
     15 C8           1.3700    -0.0000     2.4100 ca         1 Z81      -0.097000
     16 C9           4.2600    -0.9250     0.4420 ca         1 Z81      -0.133000
     17 C10         -1.9220    -2.7190     5.7220 ca         1 Z81       0.436200
     18 C11         -2.7110    -2.6600     3.5490 ca         1 Z81       0.436200
     19 C12          2.0750     0.0000     1.2080 cp         1 Z81      -0.032000
     20 C13          3.5580    -0.0010     1.2130 cp         1 Z81      -0.044000
     21 C14         -0.0100    -0.0050     2.3990 ca         1 Z81      -0.073300
     22 C15         -1.3740    -0.9720     4.3030 ca         1 Z81      -0.062300
     23 C16          5.6420    -0.9330     0.4660 ca         1 Z81       0.122900
     24 C17          4.2560     0.9240     1.9930 ca         1 Z81       0.121900
     25 C18         -1.7760     1.3450     3.7740 c          1 Z81       0.708500
     26 C19         -0.1550     1.9080     5.2120 c2         1 Z81       0.452800
     27 C20         -0.7020     0.2750     3.7870 c3         1 Z81       0.138800
     28 H1          -0.5420     0.0100    -0.9380 ha         1 Z81       0.155000
     29 H2           1.9210     0.0170    -0.9380 ha         1 Z81       0.155000
     30 H3          -1.7770     0.0000     1.1950 ha         1 Z81       0.153000
     31 H4           7.4120    -0.0300     1.2740 ha         1 Z81       0.162000
     32 HN4          0.1520     2.4630     7.0580 hn         1 Z81       0.483133
     33 HN4A         0.3840     3.6350     5.9430 hn         1 Z81       0.483133
     34 H5           6.2840     1.6030     2.5300 ha         1 Z81       0.158000
     35 H6          -0.7930    -1.0060     6.3470 ha         1 Z81       0.141000
     36 H7          -2.0310    -1.1540     2.3570 ha         1 Z81       0.141000
     37 H8           1.9050    -0.0520     3.3510 ha         1 Z81       0.150000
     38 H9           3.9410    -1.8510    -0.0200 ha         1 Z81       0.168000
     39 H10         -1.8270    -3.2250     6.6750 h4         1 Z81       0.040100
     40 H11         -3.2600    -3.1290     2.7420 h4         1 Z81       0.040100
     41 H21         -1.3060     4.2960     5.1540 h1         1 Z81       0.068700
     42 H21A        -2.7130     3.7880     4.2090 h1         1 Z81       0.068700
     43 H21B        -2.5990     3.3640     5.9230 h1         1 Z81       0.068700
     44 H43          1.4160     2.2660     6.3140 hn         1 Z81       0.483133
     45 C21         -2.0370     3.5090     5.0080 c3         1 Z81       0.075300
@<TRIPOS>BOND
     1     5     1 ar
     2     1     8 ar
     3     1    28 1
     4     2    23 1
     5    18     3 ar
     6     3    17 ar
     7    25     4 2
     8    19     5 ar
     9     5    29 1
    10    24     6 1
    11     7    26 2
    12     7    27 1
    13    21     8 ar
    14     8    30 1
    15    26     9 1
    16     9    45 1
    17     9    25 1
    18    23    10 ar
    19    10    12 ar
    20    10    31 1
    21    11    26 1
    22    11    32 1
    23    11    33 1
    24    12    24 ar
    25    12    34 1
    26    22    13 ar
    27    13    17 ar
    28    13    35 1
    29    14    18 ar
    30    14    22 ar
    31    14    36 1
    32    19    15 ar
    33    15    21 ar
    34    15    37 1
    35    23    16 ar
    36    16    20 ar
    37    16    38 1
    38    17    39 1
    39    18    40 1
    40    20    19 1
    41    20    24 ar
    42    21    27 1
    43    27    22 1
    44    27    25 1
    45    45    41 1
    46    45    42 1
    47    45    43 1
    48    44    11 1
@<TRIPOS>SUBSTRUCTURE
     1 Z81         1 TEMP              0 ****  ****    0 ROOT
