@<TRIPOS>MOLECULE
Z82
   14    14     1     0     0
SMALL
bcc


@<TRIPOS>ATOM
      1 C1          1.0130   -0.1560   -0.3840 ca        1 Z82     -0.096000
      2 O1         -1.3480   -0.4240   -1.8960 o         1 Z82     -0.826800
      3 C2          2.1590   -0.0190    0.3980 ca        1 Z82     -0.164000
      4 C3          2.0510    0.1780    1.7740 ca        1 Z82     -0.135000
      5 C4          0.7840    0.2370    2.3620 ca        1 Z82     -0.040900
      6 BR4         0.6430    0.5030    4.2220 br        1 Z82     -0.162100
      7 C5         -0.3650    0.1000    1.5830 ca        1 Z82     -0.079000
      8 C6         -0.2540   -0.0980    0.2020 ca        1 Z82     -0.126600
      9 C7         -1.5050   -0.2480   -0.6550 c         1 Z82      0.909200
     10 H2          1.0770   -0.3130   -1.4740 ha        1 Z82      0.155000
     11 H3          3.1540   -0.0660   -0.0660 ha        1 Z82      0.109000
     12 H5          2.9580    0.2850    2.3850 ha        1 Z82      0.117000
     13 H6         -1.3780    0.1420    2.0180 ha        1 Z82      0.167000
     14 O2         -2.6270   -0.1880   -0.0770 o         1 Z82     -0.826800
@<TRIPOS>BOND
     1    1    3 ar  
     2    1    8 ar  
     3    1   10 1   
     4    2    9 1   
     5    3    4 ar  
     6    3   11 1   
     7    4    5 ar  
     8    4   12 1   
     9    5    6 1   
    10    5    7 ar  
    11    7    8 ar  
    12    7   13 1   
    13    8    9 1   
    14    9   14 1   
@<TRIPOS>SUBSTRUCTURE
     1 Z82         1 TEMP              0 ****  ****    0 ROOT
