@<TRIPOS>MOLECULE
molecule
   14    14     1     0     0
SMALL
bcc


@<TRIPOS>ATOM
      1 C1           0.0000     0.0000     0.0000 ca         1 Z82      -0.087600
      2 O1          -0.1370    -0.0010    -2.3300 o          1 Z82      -0.832800
      3 C2           1.3970     0.0000     0.0000 ca         1 Z82      -0.102000
      4 C3           2.0820     0.0000     1.1960 ca         1 Z82      -0.135500
      5 C4           1.3900    -0.0010     2.3950 ca         1 Z82      -0.032900
      6 Br4          2.3400    -0.0000     4.0300 br         1 Z82      -0.167100
      7 C5           0.0050    -0.0000     2.4020 ca         1 Z82      -0.135500
      8 C6          -0.6930     0.0060     1.2130 ca         1 Z82      -0.102000
      9 C7          -0.7410    -0.0010    -1.2780 c          1 Z82       0.880200
     10 H2           1.9400    -0.0020    -0.9370 ha         1 Z82       0.155500
     11 H3           3.1660     0.0000     1.1970 ha         1 Z82       0.118500
     12 H5          -0.5310     0.0020     3.3430 ha         1 Z82       0.118500
     13 H6          -1.7760     0.0060     1.2190 ha         1 Z82       0.155500
     14 O2          -2.0890    -0.0010    -1.2740 o          1 Z82      -0.832800
@<TRIPOS>BOND
     1     1     9 1
     2     2     9 1
     3     3     1 ar
     4     3    10 1
     5     4     3 ar
     6     4    11 1
     7     5     4 ar
     8     5     7 ar
     9     6     5 1
    10     7     8 ar
    11     7    12 1
    12     8     1 ar
    13     8    13 1
    14     9    14 1
@<TRIPOS>SUBSTRUCTURE
     1 Z82         1 TEMP              0 ****  ****    0 ROOT
