@<TRIPOS>MOLECULE
Z83
   48    50     1     0     0
SMALL
bcc


@<TRIPOS>ATOM
      1 CAA          0.0000     0.0000     0.0000 c3         1 Z83       0.006233
      2 CAB          2.0400     0.0000     1.4430 c3         1 Z83       0.006233
      3 CAC          2.0400    -1.2490    -0.7210 c3         1 Z83       0.006233
      4 OAD          4.7610     4.3270    -9.4590 o          1 Z83      -0.888300
      5 OAF          3.3840     3.3630    -8.0250 o          1 Z83      -0.888300
      6 CAG          1.8560     9.0860     2.7550 cc         1 Z83       0.382200
      7 CAH          1.3540     8.1550     3.5670 cd         1 Z83      -0.184400
      8 CAI          4.9540     2.6930    -5.2580 ca         1 Z83      -0.083000
      9 CAJ          3.7000     4.7290    -5.0920 ca         1 Z83      -0.083000
     10 CAK          4.3840     2.2430    -4.0820 ca         1 Z83      -0.108500
     11 CAL          3.1320     4.2870    -3.9130 ca         1 Z83      -0.108500
     12 CAM          2.0280     2.5300    -0.1960 cc         1 Z83      -0.344300
     13 NAO          2.2750     8.6300     1.5890 nc         1 Z83      -0.647000
     14 NAP          2.5470     1.2620    -1.9140 nd         1 Z83      -0.644800
     15 NAQ          2.7400     4.7320    -1.0230 ns         1 Z83       0.004900
     16 SAS          1.4430     6.6020     2.7400 ss         1 Z83      -0.217300
     17 CAT          4.3940     3.9990    -8.2100 c          1 Z83       0.980600
     18 CAU          2.3670     5.3690     0.1060 c          1 Z83       0.533100
     19 CAV          4.6140     3.9360    -5.7600 ca         1 Z83       0.018700
     20 CAW          3.4710     3.0400    -3.4050 ca         1 Z83      -0.207200
     21 CAX          2.0330     1.2300    -0.7100 cc         1 Z83       0.365600
     22 CAY          2.5620     3.3550    -1.1380 cd         1 Z83      -0.260700
     23 CAZ          2.1540     7.3560     1.3800 cd         1 Z83       0.433300
     24 NBA          2.8910     2.5870    -2.2130 na         1 Z83       0.636300
     25 CBB          1.5310     0.0000     0.0000 c3         1 Z83      -0.075300
     26 HAA         -0.3610     0.0750    -1.0190 hc         1 Z83       0.005700
     27 HAAA        -0.3610    -0.9190     0.4450 hc         1 Z83       0.005700
     28 HAAB        -0.3610     0.8450     0.5740 hc         1 Z83       0.005700
     29 HAB          1.5400     0.7810     2.0020 hc         1 Z83       0.005700
     30 HABA         3.1090     0.1800     1.4480 hc         1 Z83       0.005700
     31 HABB         1.8330    -0.9610     1.8990 hc         1 Z83       0.005700
     32 HAC          3.1230    -1.2280    -0.7590 hc         1 Z83       0.005700
     33 HACA         1.6430    -1.2720    -1.7280 hc         1 Z83       0.005700
     34 HACB         1.7160    -2.1330    -0.1840 hc         1 Z83       0.005700
     35 HAG          1.9140    10.1320     3.0290 h4         1 Z83      -0.007900
     36 HAH          0.9580     8.3240     4.5610 h4         1 Z83       0.153000
     37 HAI          5.6680     2.0720    -5.7850 ha         1 Z83       0.111500
     38 HAJ          3.4360     5.7020    -5.4880 ha         1 Z83       0.111500
     39 HAK          4.6500     1.2690    -3.6890 ha         1 Z83       0.103000
     40 HAL          2.4180     4.9100    -3.3880 ha         1 Z83       0.103000
     41 HAM          1.6630     2.8280     0.7800 ha         1 Z83       0.185000
     42 HAN          6.2340     4.0040    -7.1390 hc         1 Z83       0.015700
     43 HANA         5.3090     5.5070    -7.0170 hc         1 Z83       0.015700
     44 HNAQ         3.1910     5.2410    -1.7580 hn         1 Z83       0.180500
     45 HNAR         2.9840     7.2100    -0.5220 hn         1 Z83       0.173500
     46 NAR          2.5390     6.7000     0.2160 ns         1 Z83      -0.073400
     47 CAN          5.2410     4.4260    -7.0390 c3         1 Z83      -0.101100
     48 OAE          1.8750     4.7400     1.0230 o          1 Z83      -0.655100
@<TRIPOS>BOND
     1     1    25 1   
     2     1    26 1   
     3     1    27 1   
     4     1    28 1   
     5     2    25 1   
     6     2    29 1   
     7     2    30 1   
     8     2    31 1   
     9     3    25 1   
    10     3    32 1   
    11     3    33 1   
    12     3    34 1   
    13     4    17 1   
    14     5    17 1   
    15     6     7 2   
    16     6    13 1   
    17     6    35 1   
    18     7    16 1   
    19     7    36 1   
    20     8    10 ar  
    21     8    19 ar  
    22     8    37 1   
    23     9    11 ar  
    24     9    19 ar  
    25     9    38 1   
    26    10    20 ar  
    27    10    39 1   
    28    11    20 ar  
    29    11    40 1   
    30    12    21 1   
    31    12    22 2   
    32    12    41 1   
    33    13    23 2   
    34    14    21 2   
    35    14    24 1   
    36    15    18 1   
    37    15    22 1   
    38    15    44 1   
    39    16    23 1   
    40    17    47 1   
    41    18    46 1   
    42    18    48 2   
    43    19    47 1   
    44    20    24 1   
    45    21    25 1   
    46    22    24 1   
    47    23    46 1   
    48    42    47 1   
    49    43    47 1   
    50    45    46 1   
@<TRIPOS>SUBSTRUCTURE
     1 Z83         1 TEMP              0 ****  ****    0 ROOT
