@<TRIPOS>MOLECULE
Z84
   65    68     1     0     0
SMALL
bcc


@<TRIPOS>ATOM
      1 CAA          0.0000     0.0000     0.0000 c3         1 Z84       0.063200
      2 CAB          8.6670    -2.0480     4.1610 c3         1 Z84       0.006567
      3 CAC          9.4560     0.2310     3.5090 c3         1 Z84       0.006567
      4 CAD          8.7940    -1.4120     1.7480 c3         1 Z84       0.006567
      5 OAE          5.8750     1.8290     6.2110 o          1 Z84      -0.643100
      6 CAF          0.7100    10.9650    12.9890 ca         1 Z84       0.399200
      7 CAG         -1.2030     9.7540    12.5650 ca         1 Z84       0.399200
      8 CAH          1.4090    10.2750    12.0160 ca         1 Z84      -0.199300
      9 CAI         -0.5720     9.0320    11.5700 ca         1 Z84      -0.199300
     10 CAJ          2.5020     0.0000     0.0000 ca         1 Z84      -0.081500
     11 CAK          1.3550    -0.0150     2.1040 ca         1 Z84      -0.081500
     12 CAL          3.7170     0.0000     0.6580 ca         1 Z84      -0.109500
     13 CAM          2.5660    -0.0090     2.7680 ca         1 Z84      -0.109500
     14 CAN          5.4200     4.1600     9.7390 cc         1 Z84      -0.160400
     15 CAO          6.5350     0.4010     4.2310 cc         1 Z84      -0.327300
     16 CAP          2.7910     6.5610     9.8810 c3         1 Z84       0.211400
     17 CAR          1.4830     8.5330    10.2610 c3         1 Z84       0.266700
     18 NAS         -0.5560    10.6880    13.2330 nb         1 Z84      -0.578000
     19 NAT          3.5610     4.0200     8.5100 nd         1 Z84      -0.628000
     20 NAU          6.1420    -0.6280     2.3300 nd         1 Z84      -0.651800
     21 NAW          3.8620     2.7060     6.5490 ns         1 Z84      -0.067400
     22 OAX          2.0970     7.3740    10.8290 os         1 Z84      -0.411600
     23 SAY          5.8780     3.1610     8.3620 ss         1 Z84      -0.204300
     24 CAZ          4.7310     1.9740     5.8240 c          1 Z84       0.534100
     25 CBA          1.3230    -0.0050     0.7210 ca         1 Z84      -0.088300
     26 CBB          0.7610     9.2890    11.2900 ca         1 Z84      -0.074300
     27 CBC          4.1370     4.4970     9.5970 cd         1 Z84       0.347600
     28 CBD          3.7520    -0.0040     2.0460 ca         1 Z84      -0.138200
     29 CBE          5.2320     0.6450     3.9200 cd         1 Z84      -0.241700
     30 CBF          7.0740    -0.3970     3.2190 cc         1 Z84       0.393600
     31 CBG          4.2970     3.2940     7.7260 cc         1 Z84       0.412300
     32 NBH          4.9670     0.0150     2.7440 na         1 Z84       0.585300
     33 HAA         -0.1090    -0.9200    -0.5610 hc         1 Z84       0.010033
     34 HAAA        -0.0380     0.8430    -0.6790 hc         1 Z84       0.010033
     35 HAAB        -0.8040     0.0810     0.7210 hc         1 Z84       0.010033
     36 HAB          9.6690    -2.4510     4.0780 hc         1 Z84       0.008144
     37 HABA         7.9450    -2.8300     3.9570 hc         1 Z84       0.008144
     38 HABB         8.5130    -1.6670     5.1630 hc         1 Z84       0.008144
     39 HAC         10.4740    -0.0890     3.3230 hc         1 Z84       0.008144
     40 HACA         9.3540     0.5250     4.5470 hc         1 Z84       0.008144
     41 HACB         9.2190     1.0730     2.8700 hc         1 Z84       0.008144
     42 HAD          9.8110    -1.7820     1.7070 hc         1 Z84       0.008144
     43 HADA         8.1060    -2.2210     1.5340 hc         1 Z84       0.008144
     44 HADB         8.6660    -0.6260     1.0140 hc         1 Z84       0.008144
     45 HAG         -2.2440     9.5570    12.7920 h4         1 Z84      -0.020900
     46 HAH          2.4500    10.5050    11.8230 ha         1 Z84       0.116000
     47 HAI         -1.1090     8.2660    11.0230 ha         1 Z84       0.116000
     48 HAJ          2.4740     0.0030    -1.0830 ha         1 Z84       0.111000
     49 HAK          0.4300    -0.0190     2.6670 ha         1 Z84       0.111000
     50 HAL          4.6400     0.0040     0.0920 ha         1 Z84       0.119500
     51 HAM          2.5900    -0.0160     3.8510 ha         1 Z84       0.119500
     52 HAN          6.0670     4.4500    10.5580 h4         1 Z84       0.163000
     53 HAO          7.0590     0.7610     5.1080 ha         1 Z84       0.193000
     54 HAP          3.5760     7.1420     9.4130 h1         1 Z84      -0.002300
     55 HAPA         2.0970     6.2160     9.1240 h1         1 Z84      -0.002300
     56 HAR          2.2420     9.1550     9.8010 h1         1 Z84      -0.004300
     57 HARA         0.7630     8.2300     9.5110 h1         1 Z84      -0.004300
     58 HNAW         2.9220     2.8270     6.2300 hn         1 Z84       0.170500
     59 CBI          8.4920    -0.9040     3.1590 c3         1 Z84      -0.082300
     60 NAV          4.3330     1.4030     4.6700 ns         1 Z84      -0.008100
     61 CAQ          3.4060     5.3560    10.5970 c3         1 Z84      -0.048700
     62 HAF          1.2090    11.7390    13.5600 h4         1 Z84      -0.020900
     63 HAQ          2.6210     4.7750    11.0660 hc         1 Z84       0.029200
     64 HAQA         4.1000     5.7000    11.3540 hc         1 Z84       0.029200
     65 HNAV         3.4020     1.5500     4.3350 hn         1 Z84       0.172500
@<TRIPOS>BOND
     1     1    25 1   
     2     1    33 1   
     3     1    34 1   
     4     1    35 1   
     5     2    36 1   
     6     2    37 1   
     7     2    38 1   
     8     2    59 1   
     9     3    39 1   
    10     3    40 1   
    11     3    41 1   
    12     3    59 1   
    13     4    42 1   
    14     4    43 1   
    15     4    44 1   
    16     4    59 1   
    17     5    24 2   
    18     6     8 ar  
    19     6    18 ar  
    20     6    62 1   
    21     7     9 ar  
    22     7    18 ar  
    23     7    45 1   
    24     8    26 ar  
    25     8    46 1   
    26     9    26 ar  
    27     9    47 1   
    28    10    12 ar  
    29    10    25 ar  
    30    10    48 1   
    31    11    13 ar  
    32    11    25 ar  
    33    11    49 1   
    34    12    28 ar  
    35    12    50 1   
    36    13    28 ar  
    37    13    51 1   
    38    14    23 1   
    39    14    27 2   
    40    14    52 1   
    41    15    29 2   
    42    15    30 1   
    43    15    53 1   
    44    16    22 1   
    45    16    54 1   
    46    16    55 1   
    47    16    61 1   
    48    17    22 1   
    49    17    26 1   
    50    17    56 1   
    51    17    57 1   
    52    19    27 1   
    53    19    31 2   
    54    20    30 2   
    55    20    32 1   
    56    21    24 1   
    57    21    31 1   
    58    21    58 1   
    59    23    31 1   
    60    24    60 1   
    61    27    61 1   
    62    28    32 1   
    63    29    32 1   
    64    29    60 1   
    65    30    59 1   
    66    60    65 1   
    67    61    63 1   
    68    61    64 1   
@<TRIPOS>SUBSTRUCTURE
     1 Z84         1 TEMP              0 ****  ****    0 ROOT
