@<TRIPOS>MOLECULE
Z85
   66    69     1     0     0
SMALL
bcc


@<TRIPOS>ATOM
      1 CAA          0.0000     0.0000     0.0000 c3         1 Z85       0.063200
      2 CAB          8.7940    -1.4140     1.7460 c3         1 Z85       0.006567
      3 CAC          8.6670    -2.0530     4.1570 c3         1 Z85       0.006567
      4 CAD          9.4570     0.2270     3.5090 c3         1 Z85       0.006567
      5 OAE          5.8760     1.8210     6.2130 o          1 Z85      -0.642100
      6 CAF         -0.5740    10.6600    13.3140 ca         1 Z85      -0.094000
      7 CAG         -1.2430     9.6810    12.6030 ca         1 Z85      -0.107000
      8 CAH          0.7510    10.9360    13.0320 ca         1 Z85      -0.107000
      9 CAI         -0.5840     8.9730    11.6150 ca         1 Z85      -0.077000
     10 CAJ          1.4080    10.2310    12.0410 ca         1 Z85      -0.077000
     11 CAK          2.5020     0.0000     0.0000 ca         1 Z85      -0.081500
     12 CAL          1.3550    -0.0180     2.1040 ca         1 Z85      -0.081500
     13 CAM          3.7170     0.0000     0.6590 ca         1 Z85      -0.109500
     14 CAN          2.5670    -0.0130     2.7680 ca         1 Z85      -0.109500
     15 CAO          5.4220     4.1460     9.7450 cc         1 Z85      -0.160400
     16 CAP          6.5350     0.3960     4.2310 cc         1 Z85      -0.326300
     17 CAQ          2.7920     6.5460     9.8970 c3         1 Z85       0.209400
     18 CAS          1.4830     8.5150    10.2870 c3         1 Z85       0.270700
     19 NAT          3.5630     4.0120     8.5130 nd         1 Z85      -0.626000
     20 NAU          6.1420    -0.6310     2.3290 nd         1 Z85      -0.650800
     21 NAW          3.8630     2.6980     6.5530 ns         1 Z85      -0.069400
     22 OAX          2.0970     7.3540    10.8490 os         1 Z85      -0.413600
     23 SAY          5.8800     3.1490     8.3660 ss         1 Z85      -0.207300
     24 CAZ          4.7330     1.9660     5.8270 c          1 Z85       0.535100
     25 CBA          1.3230    -0.0070     0.7220 ca         1 Z85      -0.088300
     26 CBB          0.7430     9.2440    11.3380 ca         1 Z85      -0.107300
     27 CBC          4.1390     4.4840     9.6030 cd         1 Z85       0.348600
     28 CBD          3.7520    -0.0070     2.0460 ca         1 Z85      -0.137200
     29 CBE          5.2330     0.6400     3.9220 cd         1 Z85      -0.241700
     30 CBF          7.0750    -0.4000     3.2170 cc         1 Z85       0.391600
     31 CBG          4.2980     3.2830     7.7320 cc         1 Z85       0.412300
     32 NBH          4.9690     0.0110     2.7430 na         1 Z85       0.584300
     33 HAA         -0.6420    -0.7680     0.4150 hc         1 Z85       0.010033
     34 HAAA         0.1620    -0.1960    -1.0530 hc         1 Z85       0.010033
     35 HAAB        -0.4710     0.9680     0.1190 hc         1 Z85       0.010033
     36 HAB          8.1070    -2.2120     1.4940 hc         1 Z85       0.008144
     37 HABA         9.8110    -1.7860     1.7040 hc         1 Z85       0.008144
     38 HABB         8.6780    -0.6010     1.0390 hc         1 Z85       0.008144
     39 HAC          7.9530    -2.8370     3.9360 hc         1 Z85       0.008144
     40 HACA         8.5070    -1.6920     5.1660 hc         1 Z85       0.008144
     41 HACB         9.6730    -2.4450     4.0690 hc         1 Z85       0.008144
     42 HAD         10.4750    -0.0940     3.3250 hc         1 Z85       0.008144
     43 HADA         9.3430     0.4850     4.5550 hc         1 Z85       0.008144
     44 HADB         9.2350     1.0930     2.8970 hc         1 Z85       0.008144
     45 HAG         -2.2830     9.4670    12.8210 ha         1 Z85       0.102000
     46 HAH          1.2740    11.7060    13.5860 ha         1 Z85       0.102000
     47 HAI         -1.1070     8.2030    11.0600 ha         1 Z85       0.105500
     48 HAJ          2.4470    10.4450    11.8220 ha         1 Z85       0.105500
     49 HAK          2.4740     0.0050    -1.0830 ha         1 Z85       0.111000
     50 HAL          0.4300    -0.0230     2.6670 ha         1 Z85       0.111000
     51 HAM          4.6410     0.0050     0.0930 ha         1 Z85       0.120000
     52 HAN          2.5910    -0.0210     3.8510 ha         1 Z85       0.120000
     53 HAO          6.0700     4.4340    10.5640 h4         1 Z85       0.162000
     54 HAP          7.0600     0.7560     5.1070 ha         1 Z85       0.193000
     55 HAQ          2.0990     6.2060     9.1380 h1         1 Z85      -0.003300
     56 HAQA         3.5780     7.1300     9.4330 h1         1 Z85      -0.003300
     57 HAS          2.2420     9.1400     9.8300 h1         1 Z85      -0.006800
     58 HASA         0.7630     8.2150     9.5360 h1         1 Z85      -0.006800
     59 HNAW         2.9310     2.8440     6.2190 hn         1 Z85       0.170500
     60 CBI          8.4930    -0.9080     3.1570 c3         1 Z85      -0.081300
     61 NAV          4.3330     1.3970     4.6720 ns         1 Z85      -0.009100
     62 CAR          3.4060     5.3370    10.6060 c3         1 Z85      -0.049700
     63 HAF         -1.0900    11.2140    14.0890 ha         1 Z85       0.101000
     64 HAR          4.0990     5.6770    11.3660 hc         1 Z85       0.029200
     65 HARA         2.6200     4.7530    11.0710 hc         1 Z85       0.029200
     66 HNAV         3.4090     1.5620     4.3260 hn         1 Z85       0.172500
@<TRIPOS>BOND
     1     1    25 1   
     2     1    33 1   
     3     1    34 1   
     4     1    35 1   
     5     2    36 1   
     6     2    37 1   
     7     2    38 1   
     8     2    60 1   
     9     3    39 1   
    10     3    40 1   
    11     3    41 1   
    12     3    60 1   
    13     4    42 1   
    14     4    43 1   
    15     4    44 1   
    16     4    60 1   
    17     5    24 2   
    18     6     7 ar  
    19     6     8 ar  
    20     6    63 1   
    21     7     9 ar  
    22     7    45 1   
    23     8    10 ar  
    24     8    46 1   
    25     9    26 ar  
    26     9    47 1   
    27    10    26 ar  
    28    10    48 1   
    29    11    13 ar  
    30    11    25 ar  
    31    11    49 1   
    32    12    14 ar  
    33    12    25 ar  
    34    12    50 1   
    35    13    28 ar  
    36    13    51 1   
    37    14    28 ar  
    38    14    52 1   
    39    15    23 1   
    40    15    27 2   
    41    15    53 1   
    42    16    29 2   
    43    16    30 1   
    44    16    54 1   
    45    17    22 1   
    46    17    55 1   
    47    17    56 1   
    48    17    62 1   
    49    18    22 1   
    50    18    26 1   
    51    18    57 1   
    52    18    58 1   
    53    19    27 1   
    54    19    31 2   
    55    20    30 2   
    56    20    32 1   
    57    21    24 1   
    58    21    31 1   
    59    21    59 1   
    60    23    31 1   
    61    24    61 1   
    62    27    62 1   
    63    28    32 1   
    64    29    32 1   
    65    29    61 1   
    66    30    60 1   
    67    61    66 1   
    68    62    64 1   
    69    62    65 1   
@<TRIPOS>SUBSTRUCTURE
     1 Z85         1 TEMP              0 ****  ****    0 ROOT
