@<TRIPOS>MOLECULE
molecule
   66    69     1     0     0
SMALL
bcc


@<TRIPOS>ATOM
      1 CAA          0.0000     0.0000     0.0000 c3         1 Z85      -0.047800
      2 CAB          8.7940    -1.4140     1.7460 c3         1 Z85      -0.080767
      3 CAC          8.6670    -2.0530     4.1570 c3         1 Z85      -0.080767
      4 CAD          9.4570     0.2270     3.5090 c3         1 Z85      -0.080767
      5 OAE          5.8760     1.8210     6.2130 o          1 Z85      -0.614100
      6 CAF         -0.5740    10.6600    13.3140 ca         1 Z85      -0.121000
      7 CAG         -1.2430     9.6810    12.6030 ca         1 Z85      -0.133000
      8 CAH          0.7510    10.9360    13.0320 ca         1 Z85      -0.133000
      9 CAI         -0.5840     8.9730    11.6150 ca         1 Z85      -0.105500
     10 CAJ          1.4080    10.2310    12.0410 ca         1 Z85      -0.105500
     11 CAK          2.5020     0.0000     0.0000 ca         1 Z85      -0.108500
     12 CAL          1.3550    -0.0180     2.1040 ca         1 Z85      -0.108500
     13 CAM          3.7170     0.0000     0.6590 ca         1 Z85      -0.145000
     14 CAN          2.5670    -0.0130     2.7680 ca         1 Z85      -0.145000
     15 CAO          5.4220     4.1460     9.7450 cc         1 Z85      -0.248400
     16 CAP          6.5350     0.3960     4.2310 cc         1 Z85      -0.336300
     17 CAQ          2.7920     6.5460     9.8970 c3         1 Z85       0.140400
     18 CAS          1.4830     8.5150    10.2870 c3         1 Z85       0.187700
     19 NAT          3.5630     4.0120     8.5130 nd         1 Z85      -0.745000
     20 NAU          6.1420    -0.6310     2.3290 nd         1 Z85      -0.501800
     21 NAW          3.8630     2.6980     6.5530 ns         1 Z85      -0.527400
     22 OAX          2.0970     7.3540    10.8490 os         1 Z85      -0.429600
     23 SAY          5.8800     3.1490     8.3660 ss         1 Z85      -0.064300
     24 CAZ          4.7330     1.9660     5.8270 c          1 Z85       0.787100
     25 CBA          1.3230    -0.0070     0.7220 ca         1 Z85      -0.090300
     26 CBB          0.7430     9.2440    11.3380 ca         1 Z85      -0.088300
     27 CBC          4.1390     4.4840     9.6030 cd         1 Z85       0.395600
     28 CBD          3.7520    -0.0070     2.0460 ca         1 Z85       0.036800
     29 CBE          5.2330     0.6400     3.9220 cd         1 Z85       0.075300
     30 CBF          7.0750    -0.4000     3.2170 cc         1 Z85       0.367600
     31 CBG          4.2980     3.2830     7.7320 cc         1 Z85       0.550300
     32 NBH          4.9690     0.0110     2.7430 na         1 Z85       0.118300
     33 HAA         -0.6420    -0.7680     0.4150 hc         1 Z85       0.045700
     34 HAAA         0.1620    -0.1960    -1.0530 hc         1 Z85       0.045700
     35 HAAB        -0.4710     0.9680     0.1190 hc         1 Z85       0.045700
     36 HAB          8.1070    -2.2120     1.4940 hc         1 Z85       0.040033
     37 HABA         9.8110    -1.7860     1.7040 hc         1 Z85       0.040033
     38 HABB         8.6780    -0.6010     1.0390 hc         1 Z85       0.040033
     39 HAC          7.9530    -2.8370     3.9360 hc         1 Z85       0.040033
     40 HACA         8.5070    -1.6920     5.1660 hc         1 Z85       0.040033
     41 HACB         9.6730    -2.4450     4.0690 hc         1 Z85       0.040033
     42 HAD         10.4750    -0.0940     3.3250 hc         1 Z85       0.040033
     43 HADA         9.3430     0.4850     4.5550 hc         1 Z85       0.040033
     44 HADB         9.2350     1.0930     2.8970 hc         1 Z85       0.040033
     45 HAG         -2.2830     9.4670    12.8210 ha         1 Z85       0.129500
     46 HAH          1.2740    11.7060    13.5860 ha         1 Z85       0.129500
     47 HAI         -1.1070     8.2030    11.0600 ha         1 Z85       0.132000
     48 HAJ          2.4470    10.4450    11.8220 ha         1 Z85       0.132000
     49 HAK          2.4740     0.0050    -1.0830 ha         1 Z85       0.138000
     50 HAL          0.4300    -0.0230     2.6670 ha         1 Z85       0.138000
     51 HAM          4.6410     0.0050     0.0930 ha         1 Z85       0.145500
     52 HAN          2.5910    -0.0210     3.8510 ha         1 Z85       0.145500
     53 HAO          6.0700     4.4340    10.5640 h4         1 Z85       0.181000
     54 HAP          7.0600     0.7560     5.1070 ha         1 Z85       0.201000
     55 HAQ          2.0990     6.2060     9.1380 h1         1 Z85       0.032200
     56 HAQA         3.5780     7.1300     9.4330 h1         1 Z85       0.032200
     57 HAS          2.2420     9.1400     9.8300 h1         1 Z85       0.028200
     58 HASA         0.7630     8.2150     9.5360 h1         1 Z85       0.028200
     59 HNAW         2.9310     2.8440     6.2190 hn         1 Z85       0.340500
     60 CBI          8.4930    -0.9080     3.1570 c3         1 Z85      -0.084300
     61 NAV          4.3330     1.3970     4.6720 ns         1 Z85      -0.462100
     62 CAR          3.4060     5.3370    10.6060 c3         1 Z85      -0.098700
     63 HAF         -1.0900    11.2140    14.0890 ha         1 Z85       0.128000
     64 HAR          4.0990     5.6770    11.3660 hc         1 Z85       0.066200
     65 HARA         2.6200     4.7530    11.0710 hc         1 Z85       0.066200
     66 HNAV         3.4090     1.5620     4.3260 hn         1 Z85       0.332500
@<TRIPOS>BOND
     1    25     1 1
     2     1    33 1
     3     1    34 1
     4     1    35 1
     5    60     2 1
     6     2    36 1
     7     2    37 1
     8     2    38 1
     9     3    60 1
    10     3    39 1
    11     3    40 1
    12     3    41 1
    13     4    60 1
    14     4    42 1
    15     4    43 1
    16     4    44 1
    17     5    24 2
    18     8     6 ar
    19     6     7 ar
    20     6    63 1
    21     9     7 ar
    22     7    45 1
    23    10     8 ar
    24     8    46 1
    25    26     9 ar
    26     9    47 1
    27    10    26 ar
    28    10    48 1
    29    13    11 ar
    30    11    25 ar
    31    11    49 1
    32    14    12 ar
    33    12    25 ar
    34    12    50 1
    35    28    13 ar
    36    13    51 1
    37    28    14 ar
    38    14    52 1
    39    23    15 1
    40    15    27 2
    41    15    53 1
    42    16    30 1
    43    16    29 2
    44    16    54 1
    45    22    17 1
    46    17    62 1
    47    17    55 1
    48    17    56 1
    49    27    62 1
    50    62    64 1
    51    62    65 1
    52    18    26 1
    53    18    22 1
    54    18    57 1
    55    18    58 1
    56    27    19 1
    57    31    19 2
    58    30    20 2
    59    20    32 1
    60    24    61 1
    61    61    29 1
    62    61    66 1
    63    31    21 1
    64    21    24 1
    65    21    59 1
    66    23    31 1
    67    32    28 1
    68    29    32 1
    69    60    30 1
@<TRIPOS>SUBSTRUCTURE
     1 Z85         1 TEMP              0 ****  ****    0 ROOT
