@<TRIPOS>MOLECULE
Z86
   68    71     1     0     0
SMALL
bcc


@<TRIPOS>ATOM
      1 CAA          0.0000     0.0000     0.0000 c3         1 Z86       0.005900
      2 CAB          2.0400     0.0000     1.4430 c3         1 Z86       0.005900
      3 CAC          2.0400    -1.2500    -0.7210 c3         1 Z86       0.005900
      4 CAG          4.6330    17.0990     4.3700 ca         1 Z86      -0.099000
      5 CAH          4.4450    16.7390     3.0480 ca         1 Z86      -0.108000
      6 CAI          4.8630    16.1270     5.3250 ca         1 Z86      -0.108000
      7 CAJ          4.4800    15.4060     2.6830 ca         1 Z86      -0.078000
      8 CAK          4.9030    14.7940     4.9590 ca         1 Z86      -0.078000
      9 CAL          4.9520     2.6920    -5.2580 ca         1 Z86      -0.083500
     10 CAM          3.7000     4.7290    -5.0920 ca         1 Z86      -0.083500
     11 CAN          4.3830     2.2420    -4.0830 ca         1 Z86      -0.108000
     12 CAO          3.1320     4.2870    -3.9130 ca         1 Z86      -0.108000
     13 CAP          1.3580     8.1550     3.5680 cc         1 Z86      -0.175400
     14 CAQ          2.0270     2.5290    -0.1960 cc         1 Z86      -0.344300
     15 CAR          3.3700    11.0370     2.9840 c3         1 Z86       0.209400
     16 CAT          4.7490    12.9820     3.2400 c3         1 Z86       0.271700
     17 NAV          2.2790     8.6290     1.5890 nd         1 Z86      -0.638000
     18 NAW          2.5470     1.2620    -1.9130 nd         1 Z86      -0.644800
     19 NAX          2.7400     4.7320    -1.0240 ns         1 Z86       0.004900
     20 OAZ          3.4380    12.4190     3.3430 os         1 Z86      -0.416600
     21 SBA          1.4530     6.6010     2.7420 ss         1 Z86      -0.215300
     22 CBB          4.3910     3.9990    -8.2120 c          1 Z86       0.980600
     23 CBC          2.3670     5.3690     0.1050 c          1 Z86       0.534100
     24 CBD          4.7040    14.4340     3.6390 ca         1 Z86      -0.101300
     25 CBE          4.6130     3.9340    -5.7610 ca         1 Z86       0.019700
     26 CBF          1.8560     9.0870     2.7530 cd         1 Z86       0.351600
     27 CBG          3.4700     3.0390    -3.4060 ca         1 Z86      -0.208200
     28 CBH          2.0330     1.2300    -0.7110 cc         1 Z86       0.365600
     29 CBI          2.5630     3.3540    -1.1390 cd         1 Z86      -0.262700
     30 CBJ          2.1540     7.3570     1.3780 cc         1 Z86       0.434300
     31 NBK          2.8910     2.5860    -2.2130 na         1 Z86       0.638300
     32 CBL          1.5300     0.0000     0.0000 c3         1 Z86      -0.075300
     33 HAA         -0.3610    -0.9090     0.4660 hc         1 Z86       0.005811
     34 HAAA        -0.3610     0.8580     0.5540 hc         1 Z86       0.005811
     35 HAAB        -0.3610     0.0510    -1.0200 hc         1 Z86       0.005811
     36 HAB          3.1130     0.1490     1.4460 hc         1 Z86       0.005811
     37 HABA         1.5620     0.8010     1.9950 hc         1 Z86       0.005811
     38 HABB         1.8050    -0.9500     1.9080 hc         1 Z86       0.005811
     39 HAC          3.1230    -1.2520    -0.7160 hc         1 Z86       0.005811
     40 HACA         1.6830    -1.2470    -1.7440 hc         1 Z86       0.005811
     41 HACB         1.6740    -2.1340    -0.2130 hc         1 Z86       0.005811
     42 HAI          5.0140    16.4090     6.3600 ha         1 Z86       0.100500
     43 HAJ          4.3290    15.1240     1.6480 ha         1 Z86       0.106500
     44 HAK          5.0810    14.0320     5.7080 ha         1 Z86       0.106500
     45 HAL          5.6660     2.0710    -5.7860 ha         1 Z86       0.111500
     46 HAM          3.4370     5.7030    -5.4890 ha         1 Z86       0.111500
     47 HAN          4.6490     1.2690    -3.6890 ha         1 Z86       0.103000
     48 HAO          2.4180     4.9100    -3.3880 ha         1 Z86       0.103000
     49 HAP          0.9650     8.3230     4.5630 h4         1 Z86       0.158000
     50 HAQ          1.6630     2.8270     0.7800 ha         1 Z86       0.185000
     51 HAR          4.0170    10.4620     3.6360 h1         1 Z86      -0.001300
     52 HARA         3.6910    10.9140     1.9570 h1         1 Z86      -0.001300
     53 HAT          5.0980    12.8990     2.2180 h1         1 Z86      -0.006300
     54 HATA         5.4240    12.4470     3.8970 h1         1 Z86      -0.006300
     55 HNAX         3.1950     5.2400    -1.7570 hn         1 Z86       0.179500
     56 NAY          2.5390     6.7000     0.2150 ns         1 Z86      -0.075400
     57 HAG          4.6030    18.1440     4.6570 ha         1 Z86       0.099000
     58 HNAY         2.9450     7.2170    -0.5400 hn         1 Z86       0.173500
     59 CAU          5.2400     4.4250    -7.0410 c3         1 Z86      -0.101100
     60 OAE          1.8750     4.7400     1.0220 o          1 Z86      -0.654100
     61 CAS          1.9290    10.5440     3.1310 c3         1 Z86      -0.048700
     62 OAD          3.3810     3.3630    -8.0260 o          1 Z86      -0.887800
     63 OAF          4.7570     4.3260    -9.4600 o          1 Z86      -0.887800
     64 HAH          4.2670    17.5010     2.2990 ha         1 Z86       0.100500
     65 HAS          1.6070    10.6680     4.1580 hc         1 Z86       0.026700
     66 HASA         1.2820    11.1190     2.4780 hc         1 Z86       0.026700
     67 HAU          5.3080     5.5060    -7.0190 hc         1 Z86       0.015700
     68 HAUA         6.2320     4.0030    -7.1420 hc         1 Z86       0.015700
@<TRIPOS>BOND
     1     1    32 1   
     2     1    33 1   
     3     1    34 1   
     4     1    35 1   
     5     2    32 1   
     6     2    36 1   
     7     2    37 1   
     8     2    38 1   
     9     3    32 1   
    10     3    39 1   
    11     3    40 1   
    12     3    41 1   
    13     4     5 ar  
    14     4     6 ar  
    15     4    57 1   
    16     5     7 ar  
    17     5    64 1   
    18     6     8 ar  
    19     6    42 1   
    20     7    24 ar  
    21     7    43 1   
    22     8    24 ar  
    23     8    44 1   
    24     9    11 ar  
    25     9    25 ar  
    26     9    45 1   
    27    10    12 ar  
    28    10    25 ar  
    29    10    46 1   
    30    11    27 ar  
    31    11    47 1   
    32    12    27 ar  
    33    12    48 1   
    34    13    21 1   
    35    13    26 2   
    36    13    49 1   
    37    14    28 1   
    38    14    29 2   
    39    14    50 1   
    40    15    20 1   
    41    15    51 1   
    42    15    52 1   
    43    15    61 1   
    44    16    20 1   
    45    16    24 1   
    46    16    53 1   
    47    16    54 1   
    48    17    26 1   
    49    17    30 2   
    50    18    28 2   
    51    18    31 1   
    52    19    23 1   
    53    19    29 1   
    54    19    55 1   
    55    21    30 1   
    56    22    59 1   
    57    22    62 1   
    58    22    63 1   
    59    23    56 1   
    60    23    60 2   
    61    25    59 1   
    62    26    61 1   
    63    27    31 1   
    64    28    32 1   
    65    29    31 1   
    66    30    56 1   
    67    56    58 1   
    68    59    67 1   
    69    59    68 1   
    70    61    65 1   
    71    61    66 1   
@<TRIPOS>SUBSTRUCTURE
     1 Z86         1 TEMP              0 ****  ****    0 ROOT
