@<TRIPOS>MOLECULE
molecule
   68    71     1     0     0
SMALL
bcc


@<TRIPOS>ATOM
      1 CAA          0.0000     0.0000     0.0000 c3         1 Z86      -0.079767
      2 CAB          2.0400     0.0000     1.4430 c3         1 Z86      -0.079767
      3 CAC          2.0400    -1.2500    -0.7210 c3         1 Z86      -0.079767
      4 CAG          4.6330    17.0990     4.3700 ca         1 Z86      -0.125000
      5 CAH          4.4450    16.7390     3.0480 ca         1 Z86      -0.134000
      6 CAI          4.8630    16.1270     5.3250 ca         1 Z86      -0.134000
      7 CAJ          4.4800    15.4060     2.6830 ca         1 Z86      -0.106000
      8 CAK          4.9030    14.7940     4.9590 ca         1 Z86      -0.106000
      9 CAL          4.9520     2.6920    -5.2580 ca         1 Z86      -0.107500
     10 CAM          3.7000     4.7290    -5.0920 ca         1 Z86      -0.107500
     11 CAN          4.3830     2.2420    -4.0830 ca         1 Z86      -0.144000
     12 CAO          3.1320     4.2870    -3.9130 ca         1 Z86      -0.144000
     13 CAP          1.3580     8.1550     3.5680 cc         1 Z86      -0.258400
     14 CAQ          2.0270     2.5290    -0.1960 cc         1 Z86      -0.353300
     15 CAR          3.3700    11.0370     2.9840 c3         1 Z86       0.139400
     16 CAT          4.7490    12.9820     3.2400 c3         1 Z86       0.187700
     17 NAV          2.2790     8.6290     1.5890 nd         1 Z86      -0.753000
     18 NAW          2.5470     1.2620    -1.9130 nd         1 Z86      -0.490800
     19 NAX          2.7400     4.7320    -1.0240 ns         1 Z86      -0.453100
     20 OAZ          3.4380    12.4190     3.3430 os         1 Z86      -0.432600
     21 SBA          1.4530     6.6010     2.7420 ss         1 Z86      -0.072300
     22 CBB          4.3910     3.9990    -8.2120 c          1 Z86       0.892600
     23 CBC          2.3670     5.3690     0.1050 c          1 Z86       0.787100
     24 CBD          4.7040    14.4340     3.6390 ca         1 Z86      -0.083300
     25 CBE          4.6130     3.9340    -5.7610 ca         1 Z86       0.000700
     26 CBF          1.8560     9.0870     2.7530 cd         1 Z86       0.396600
     27 CBG          3.4700     3.0390    -3.4060 ca         1 Z86      -0.021200
     28 CBH          2.0330     1.2300    -0.7110 cc         1 Z86       0.344600
     29 CBI          2.5630     3.3540    -1.1390 cd         1 Z86       0.065300
     30 CBJ          2.1540     7.3570     1.3780 cc         1 Z86       0.569300
     31 NBK          2.8910     2.5860    -2.2130 na         1 Z86       0.150300
     32 CBL          1.5300     0.0000     0.0000 c3         1 Z86      -0.079300
     33 HAA         -0.3610    -0.9090     0.4660 hc         1 Z86       0.037033
     34 HAAA        -0.3610     0.8580     0.5540 hc         1 Z86       0.037033
     35 HAAB        -0.3610     0.0510    -1.0200 hc         1 Z86       0.037033
     36 HAB          3.1130     0.1490     1.4460 hc         1 Z86       0.037033
     37 HABA         1.5620     0.8010     1.9950 hc         1 Z86       0.037033
     38 HABB         1.8050    -0.9500     1.9080 hc         1 Z86       0.037033
     39 HAC          3.1230    -1.2520    -0.7160 hc         1 Z86       0.037033
     40 HACA         1.6830    -1.2470    -1.7440 hc         1 Z86       0.037033
     41 HACB         1.6740    -2.1340    -0.2130 hc         1 Z86       0.037033
     42 HAI          5.0140    16.4090     6.3600 ha         1 Z86       0.128000
     43 HAJ          4.3290    15.1240     1.6480 ha         1 Z86       0.133500
     44 HAK          5.0810    14.0320     5.7080 ha         1 Z86       0.133500
     45 HAL          5.6660     2.0710    -5.7860 ha         1 Z86       0.138500
     46 HAM          3.4370     5.7030    -5.4890 ha         1 Z86       0.138500
     47 HAN          4.6490     1.2690    -3.6890 ha         1 Z86       0.125500
     48 HAO          2.4180     4.9100    -3.3880 ha         1 Z86       0.125500
     49 HAP          0.9650     8.3230     4.5630 h4         1 Z86       0.176000
     50 HAQ          1.6630     2.8270     0.7800 ha         1 Z86       0.190000
     51 HAR          4.0170    10.4620     3.6360 h1         1 Z86       0.034700
     52 HARA         3.6910    10.9140     1.9570 h1         1 Z86       0.034700
     53 HAT          5.0980    12.8990     2.2180 h1         1 Z86       0.029700
     54 HATA         5.4240    12.4470     3.8970 h1         1 Z86       0.029700
     55 HNAX         3.1950     5.2400    -1.7570 hn         1 Z86       0.339500
     56 NAY          2.5390     6.7000     0.2150 ns         1 Z86      -0.530400
     57 HAG          4.6030    18.1440     4.6570 ha         1 Z86       0.125000
     58 HNAY         2.9450     7.2170    -0.5400 hn         1 Z86       0.342500
     59 CAU          5.2400     4.4250    -7.0410 c3         1 Z86      -0.159100
     60 OAE          1.8750     4.7400     1.0220 o          1 Z86      -0.625100
     61 CAS          1.9290    10.5440     3.1310 c3         1 Z86      -0.097700
     62 OAD          3.3810     3.3630    -8.0260 o          1 Z86      -0.837300
     63 OAF          4.7570     4.3260    -9.4600 o          1 Z86      -0.837300
     64 HAH          4.2670    17.5010     2.2990 ha         1 Z86       0.128000
     65 HAS          1.6070    10.6680     4.1580 hc         1 Z86       0.063200
     66 HASA         1.2820    11.1190     2.4780 hc         1 Z86       0.063200
     67 HAU          5.3080     5.5060    -7.0190 hc         1 Z86       0.042700
     68 HAUA         6.2320     4.0030    -7.1420 hc         1 Z86       0.042700
@<TRIPOS>BOND
     1     1    32 1
     2     1    33 1
     3     1    34 1
     4     1    35 1
     5     2    32 1
     6     2    36 1
     7     2    37 1
     8     2    38 1
     9    32     3 1
    10     3    39 1
    11     3    40 1
    12     3    41 1
    13    22    62 1
    14    60    23 2
    15    22    63 1
    16     6     4 ar
    17     4     5 ar
    18     4    57 1
    19     5     7 ar
    20     5    64 1
    21     6     8 ar
    22     6    42 1
    23    24     7 ar
    24     7    43 1
    25     8    24 ar
    26     8    44 1
    27    11     9 ar
    28     9    25 ar
    29     9    45 1
    30    12    10 ar
    31    10    25 ar
    32    10    46 1
    33    27    11 ar
    34    11    47 1
    35    27    12 ar
    36    12    48 1
    37    21    13 1
    38    13    26 2
    39    13    49 1
    40    14    28 1
    41    14    29 2
    42    14    50 1
    43    20    15 1
    44    15    61 1
    45    15    51 1
    46    15    52 1
    47    26    61 1
    48    61    65 1
    49    61    66 1
    50    24    16 1
    51    16    20 1
    52    16    53 1
    53    16    54 1
    54    25    59 1
    55    59    22 1
    56    59    67 1
    57    59    68 1
    58    26    17 1
    59    30    17 2
    60    28    18 2
    61    18    31 1
    62    23    19 1
    63    19    29 1
    64    19    55 1
    65    30    56 1
    66    56    23 1
    67    56    58 1
    68    21    30 1
    69    31    27 1
    70    32    28 1
    71    29    31 1
@<TRIPOS>SUBSTRUCTURE
     1 Z86         1 TEMP              0 ****  ****    0 ROOT
