@<TRIPOS>MOLECULE
molecule
   46    48     1     0     0
SMALL
bcc


@<TRIPOS>ATOM
      1 CAA          0.0000     0.0000     0.0000 c3         1 Z87      -0.080767
      2 CAB          2.0400     0.0000     1.4420 c3         1 Z87      -0.080767
      3 CAC          2.0400    -1.2490    -0.7220 c3         1 Z87      -0.080767
      4 OAE          1.8750     4.7400     1.0240 o          1 Z87      -0.617100
      5 CAL          4.9510     2.6940    -5.2580 ca         1 Z87      -0.108500
      6 CAM          3.6990     4.7310    -5.0900 ca         1 Z87      -0.108500
      7 CAN          4.3820     2.2440    -4.0820 ca         1 Z87      -0.143500
      8 CAO          3.1310     4.2890    -3.9120 ca         1 Z87      -0.143500
      9 CAP          1.3570     8.1530     3.5710 cc         1 Z87      -0.253400
     10 CAQ          2.0270     2.5300    -0.1950 cc         1 Z87      -0.337300
     11 NAV          2.2740     8.6300     1.5900 nd         1 Z87      -0.745000
     12 NAW          2.5460     1.2620    -1.9140 nd         1 Z87      -0.500800
     13 NAX          2.7390     4.7330    -1.0220 ns         1 Z87      -0.462100
     14 SBA          1.4520     6.6000     2.7450 ss         1 Z87      -0.072300
     15 CBC          2.3660     5.3690     0.1060 c          1 Z87       0.788100
     16 CBE          4.6120     3.9370    -5.7610 ca         1 Z87      -0.090300
     17 CBF          1.8550     9.0850     2.7560 cd         1 Z87       0.390200
     18 CBG          3.4700     3.0410    -3.4050 ca         1 Z87       0.034800
     19 CBH          2.0320     1.2300    -0.7100 cc         1 Z87       0.367600
     20 CBI          2.5610     3.3540    -1.1380 cd         1 Z87       0.074300
     21 CBJ          2.1530     7.3560     1.3810 cc         1 Z87       0.551300
     22 NBK          2.8910     2.5870    -2.2120 na         1 Z87       0.119300
     23 CBL          1.5300     0.0000     0.0000 c3         1 Z87      -0.084300
     24 HAA         -0.3610     0.0540    -1.0200 hc         1 Z87       0.040033
     25 HAAA        -0.3610     0.8560     0.5570 hc         1 Z87       0.040033
     26 HAAB        -0.3610    -0.9100     0.4630 hc         1 Z87       0.040033
     27 HAB          1.8050    -0.9490     1.9080 hc         1 Z87       0.040033
     28 HABA         1.5620     0.8010     1.9940 hc         1 Z87       0.040033
     29 HABB         3.1130     0.1480     1.4460 hc         1 Z87       0.040033
     30 HAC          1.6710    -2.1340    -0.2160 hc         1 Z87       0.040033
     31 HACA         3.1230    -1.2540    -0.7140 hc         1 Z87       0.040033
     32 HACB         1.6850    -1.2450    -1.7450 hc         1 Z87       0.040033
     33 HAL          5.6650     2.0740    -5.7860 ha         1 Z87       0.138000
     34 HAM          3.4350     5.7040    -5.4860 ha         1 Z87       0.138000
     35 HAN          4.6480     1.2700    -3.6900 ha         1 Z87       0.145500
     36 HAO          2.4170     4.9120    -3.3870 ha         1 Z87       0.145500
     37 HAQ          1.6640     2.8280     0.7810 ha         1 Z87       0.202000
     38 HNAX         3.1690     5.2460    -1.7660 hn         1 Z87       0.331500
     39 HBF          1.9110    10.1320     3.0300 h4         1 Z87       0.042100
     40 CAU          5.2390     4.4280    -7.0400 c3         1 Z87      -0.047800
     41 NAY          2.5380     6.7000     0.2170 ns         1 Z87      -0.527400
     42 HAP          0.9640     8.3220     4.5660 h4         1 Z87       0.179000
     43 HAU          6.0770     3.7920    -7.2990 hc         1 Z87       0.046033
     44 HAUA         5.5860     5.4450    -6.9060 hc         1 Z87       0.046033
     45 HAUB         4.5040     4.3990    -7.8360 hc         1 Z87       0.046033
     46 HNAY         2.9470     7.2170    -0.5360 hn         1 Z87       0.339500
@<TRIPOS>BOND
     1     1    23 1
     2     1    24 1
     3     1    25 1
     4     1    26 1
     5     2    23 1
     6     2    27 1
     7     2    28 1
     8     2    29 1
     9    23     3 1
    10     3    30 1
    11     3    31 1
    12     3    32 1
    13     4    15 2
    14     7     5 ar
    15     5    16 ar
    16     5    33 1
    17     8     6 ar
    18     6    16 ar
    19     6    34 1
    20    18     7 ar
    21     7    35 1
    22    18     8 ar
    23     8    36 1
    24     9    14 1
    25     9    17 2
    26     9    42 1
    27    10    19 1
    28    10    20 2
    29    10    37 1
    30    16    40 1
    31    40    43 1
    32    40    44 1
    33    40    45 1
    34    17    11 1
    35    11    21 2
    36    19    12 2
    37    12    22 1
    38    15    13 1
    39    13    20 1
    40    13    38 1
    41    21    41 1
    42    15    41 1
    43    41    46 1
    44    14    21 1
    45    17    39 1
    46    22    18 1
    47    23    19 1
    48    20    22 1
@<TRIPOS>SUBSTRUCTURE
     1 Z87         1 TEMP              0 ****  ****    0 ROOT
