@<TRIPOS>MOLECULE
Z87
   46    48     1     0     0
SMALL
bcc


@<TRIPOS>ATOM
      1 CAA          0.0000     0.0000     0.0000 c3         1 Z87       0.006567
      2 CAB          2.0400     0.0000     1.4420 c3         1 Z87       0.006567
      3 CAC          2.0400    -1.2490    -0.7220 c3         1 Z87       0.006567
      4 OAE          1.8750     4.7400     1.0240 o          1 Z87      -0.646100
      5 CAL          4.9510     2.6940    -5.2580 ca         1 Z87      -0.082000
      6 CAM          3.6990     4.7310    -5.0900 ca         1 Z87      -0.082000
      7 CAN          4.3820     2.2440    -4.0820 ca         1 Z87      -0.108500
      8 CAO          3.1310     4.2890    -3.9120 ca         1 Z87      -0.108500
      9 CAP          1.3570     8.1530     3.5710 cc         1 Z87      -0.164400
     10 CAQ          2.0270     2.5300    -0.1950 cc         1 Z87      -0.328300
     11 NAV          2.2740     8.6300     1.5900 nd         1 Z87      -0.634000
     12 NAW          2.5460     1.2620    -1.9140 nd         1 Z87      -0.650800
     13 NAX          2.7390     4.7330    -1.0220 ns         1 Z87      -0.010100
     14 SBA          1.4520     6.6000     2.7450 ss         1 Z87      -0.212300
     15 CBC          2.3660     5.3690     0.1060 c          1 Z87       0.537100
     16 CBE          4.6120     3.9370    -5.7610 ca         1 Z87      -0.088300
     17 CBF          1.8550     9.0850     2.7560 cd         1 Z87       0.377200
     18 CBG          3.4700     3.0410    -3.4050 ca         1 Z87      -0.140200
     19 CBH          2.0320     1.2300    -0.7100 cc         1 Z87       0.392600
     20 CBI          2.5610     3.3540    -1.1380 cd         1 Z87      -0.242700
     21 CBJ          2.1530     7.3560     1.3810 cc         1 Z87       0.414300
     22 NBK          2.8910     2.5870    -2.2120 na         1 Z87       0.586300
     23 CBL          1.5300     0.0000     0.0000 c3         1 Z87      -0.081300
     24 HAA         -0.3610     0.0540    -1.0200 hc         1 Z87       0.008256
     25 HAAA        -0.3610     0.8560     0.5570 hc         1 Z87       0.008256
     26 HAAB        -0.3610    -0.9100     0.4630 hc         1 Z87       0.008256
     27 HAB          1.8050    -0.9490     1.9080 hc         1 Z87       0.008256
     28 HABA         1.5620     0.8010     1.9940 hc         1 Z87       0.008256
     29 HABB         3.1130     0.1480     1.4460 hc         1 Z87       0.008256
     30 HAC          1.6710    -2.1340    -0.2160 hc         1 Z87       0.008256
     31 HACA         3.1230    -1.2540    -0.7140 hc         1 Z87       0.008256
     32 HACB         1.6850    -1.2450    -1.7450 hc         1 Z87       0.008256
     33 HAL          5.6650     2.0740    -5.7860 ha         1 Z87       0.110500
     34 HAM          3.4350     5.7040    -5.4860 ha         1 Z87       0.110500
     35 HAN          4.6480     1.2700    -3.6900 ha         1 Z87       0.120000
     36 HAO          2.4170     4.9120    -3.3870 ha         1 Z87       0.120000
     37 HAQ          1.6640     2.8280     0.7810 ha         1 Z87       0.193000
     38 HNAX         3.1690     5.2460    -1.7660 hn         1 Z87       0.172500
     39 HBF          1.9110    10.1320     3.0300 h4         1 Z87      -0.001900
     40 CAU          5.2390     4.4280    -7.0400 c3         1 Z87       0.063200
     41 NAY          2.5380     6.7000     0.2170 ns         1 Z87      -0.069400
     42 HAP          0.9640     8.3220     4.5660 h4         1 Z87       0.158000
     43 HAU          6.0770     3.7920    -7.2990 hc         1 Z87       0.010367
     44 HAUA         5.5860     5.4450    -6.9060 hc         1 Z87       0.010367
     45 HAUB         4.5040     4.3990    -7.8360 hc         1 Z87       0.010367
     46 HNAY         2.9470     7.2170    -0.5360 hn         1 Z87       0.169500
@<TRIPOS>BOND
     1     1    23 1   
     2     1    24 1   
     3     1    25 1   
     4     1    26 1   
     5     2    23 1   
     6     2    27 1   
     7     2    28 1   
     8     2    29 1   
     9     3    23 1   
    10     3    30 1   
    11     3    31 1   
    12     3    32 1   
    13     4    15 2   
    14     5     7 ar  
    15     5    16 ar  
    16     5    33 1   
    17     6     8 ar  
    18     6    16 ar  
    19     6    34 1   
    20     7    18 ar  
    21     7    35 1   
    22     8    18 ar  
    23     8    36 1   
    24     9    14 1   
    25     9    17 2   
    26     9    42 1   
    27    10    19 1   
    28    10    20 2   
    29    10    37 1   
    30    11    17 1   
    31    11    21 2   
    32    12    19 2   
    33    12    22 1   
    34    13    15 1   
    35    13    20 1   
    36    13    38 1   
    37    14    21 1   
    38    15    41 1   
    39    16    40 1   
    40    17    39 1   
    41    18    22 1   
    42    19    23 1   
    43    20    22 1   
    44    21    41 1   
    45    40    43 1   
    46    40    44 1   
    47    40    45 1   
    48    41    46 1   
@<TRIPOS>SUBSTRUCTURE
     1 Z87         1 TEMP              0 ****  ****    0 ROOT
