@<TRIPOS>MOLECULE
molecule
   22    22     1     0     0
SMALL
bcc


@<TRIPOS>ATOM
      1 CAA          0.0000     0.0000     0.0000 c3         1 Z88      -0.172100
      2 OAB          2.1140     0.0000     1.0500 o          1 Z88      -0.568100
      3 OAC          4.2380    -0.0360    -2.5300 o          1 Z88      -0.614300
      4 OAD          4.2390     1.0210    -0.2650 o          1 Z88      -0.614300
      5 CAF          4.9610    -2.8180     1.4680 ca         1 Z88      -0.132000
      6 CAG          4.9710    -3.8270    -0.7040 ca         1 Z88      -0.132000
      7 CAH          4.5580    -1.6190     0.9090 ca         1 Z88      -0.016500
      8 CAI          4.5620    -2.6310    -1.2620 ca         1 Z88      -0.016500
      9 NAJ          2.1810    -0.0000    -1.1680 ns         1 Z88      -0.658300
     10 CAK          1.5070     0.0000     0.0000 c          1 Z88       0.681100
     11 CAL          5.1710    -3.9220     0.6620 ca         1 Z88       0.035100
     12 CAM          4.3590    -1.5260    -0.4550 ca         1 Z88      -0.308500
     13 SAN          3.8370    -0.0010    -1.1670 sy         1 Z88       1.412900
     14 HAA         -0.3610    -0.8850    -0.5110 hc         1 Z88       0.068700
     15 HAAA        -0.3610     0.0000     1.0210 hc         1 Z88       0.068700
     16 HAAB        -0.3610     0.8840    -0.5110 hc         1 Z88       0.068700
     17 HAF          5.1180    -2.8910     2.5380 ha         1 Z88       0.151500
     18 HAG          5.1310    -4.6930    -1.3360 ha         1 Z88       0.151500
     19 HAH          4.3960    -0.7540     1.5410 ha         1 Z88       0.165000
     20 HAI          4.4060    -2.5570    -2.3310 ha         1 Z88       0.165000
     21 HNAJ         1.6810     0.0360    -2.0340 hn         1 Z88       0.347500
     22 BrAE         5.7300    -5.5590     1.4250 br         1 Z88      -0.082100
@<TRIPOS>BOND
     1     1    10 1
     2     1    14 1
     3     1    15 1
     4     1    16 1
     5     2    10 2
     6    13     3 2
     7    13     4 2
     8    11    22 1
     9    11     5 ar
    10     7     5 ar
    11     5    17 1
    12     8     6 ar
    13     6    11 ar
    14     6    18 1
    15    12     7 ar
    16     7    19 1
    17     8    12 ar
    18     8    20 1
    19    10     9 1
    20     9    13 1
    21     9    21 1
    22    13    12 1
@<TRIPOS>SUBSTRUCTURE
     1 Z88         1 TEMP              0 ****  ****    0 ROOT
