@<TRIPOS>MOLECULE
molecule
   33    35     1     0     0
SMALL
bcc


@<TRIPOS>ATOM
      1 C            0.0000     0.0000     0.0000 c          1 Z89       0.893600
      2 N            1.9950    -1.1970    -0.6900 n          1 Z89      -0.316400
      3 OXT         -0.6720     1.0040     0.5860 o          1 Z89      -0.847300
      4 CA           1.5070     0.0000     0.0000 c3         1 Z89       0.000700
      5 CB           2.0160     0.0000     1.4430 c3         1 Z89      -0.195400
      6 CG           3.5180     0.1240     1.4450 c          1 Z89       0.883600
      7 CAA          5.1980    -2.2300    -5.4030 ca         1 Z89       0.046600
      8 CAB          4.4240    -1.5490    -4.4530 ca         1 Z89      -0.073800
      9 CAC          4.2270    -0.1750    -4.5590 ca         1 Z89      -0.027000
     10 CAD          4.7960     0.5190    -5.6080 ca         1 Z89      -0.050900
     11 BrAE         4.5330     2.3860    -5.7600 br         1 Z89      -0.115100
     12 CAF          5.5620    -0.1510    -6.5500 ca         1 Z89      -0.092000
     13 CAG          5.7640    -1.5140    -6.4520 ca         1 Z89      -0.182000
     14 CAH          3.9690    -2.5640    -3.4800 cc         1 Z89      -0.130400
     15 CAI          4.5420    -3.8380    -3.9590 c          1 Z89       0.713700
     16 NAJ          5.2390    -3.5820    -5.0800 ns         1 Z89      -0.462100
     17 OAK          4.4040    -4.9280    -3.4360 o          1 Z89      -0.621500
     18 CAL          3.1800    -2.3650    -2.3640 cd         1 Z89       0.063400
     19 CAM          2.7560    -1.0800    -1.7660 c          1 Z89       0.704700
     20 CAW          1.6790    -2.4130    -0.2320 cs         1 Z89       0.461000
     21 SAX          0.7120    -2.7650     1.1360 s          1 Z89      -0.389400
     22 SAY          2.4480    -3.5910    -1.3100 ss         1 Z89      -0.137200
     23 OAZ          3.0810    -0.0020    -2.2260 o          1 Z89      -0.561500
     24 OD1          4.1890     0.1460     2.6070 o          1 Z89      -0.873800
     25 OD2          4.1190     0.2040     0.3990 o          1 Z89      -0.873800
     26 O           -0.6040    -0.9060    -0.5230 o          1 Z89      -0.847300
     27 HA           1.8680     0.8840    -0.5110 h1         1 Z89       0.100700
     28 HB           1.7300    -0.9260     1.9270 hc         1 Z89       0.073200
     29 HBA          1.5840     0.8360     1.9790 hc         1 Z89       0.073200
     30 HAG          6.3650    -2.0260    -7.1940 ha         1 Z89       0.115000
     31 HNAJ         5.7310    -4.2740    -5.6100 hn         1 Z89       0.323500
     32 HAC          3.5480     0.3290    -3.8820 ha         1 Z89       0.221000
     33 HAF          6.0060     0.4000    -7.3700 ha         1 Z89       0.125000
@<TRIPOS>BOND
     1     4     1 1
     2     1    26 1
     3     1     3 1
     4    20     2 1
     5     2    19 1
     6     2     4 1
     7     4     5 1
     8     4    27 1
     9     5     6 1
    10     5    28 1
    11     5    29 1
    12    25     6 1
    13     6    24 1
    14    16     7 1
    15     7     8 ar
    16     7    13 ar
    17    14     8 1
    18     8     9 ar
    19     9    10 ar
    20     9    32 1
    21    12    10 ar
    22    10    11 1
    23    13    12 ar
    24    12    33 1
    25    13    30 1
    26    15    14 1
    27    18    14 2
    28    17    15 2
    29    15    16 1
    30    16    31 1
    31    22    18 1
    32    18    19 1
    33    19    23 2
    34    22    20 1
    35    21    20 2
@<TRIPOS>SUBSTRUCTURE
     1 Z89         1 TEMP              0 ****  ****    0 ROOT
