@<TRIPOS>MOLECULE
Z8B
   34    36     1     0     0
SMALL
bcc


@<TRIPOS>ATOM
      1 N1          0.0490   -1.0910    0.5380 nb        1 Z8B     -0.674000
      2 C2          1.4040   -0.9440    0.4480 ca        1 Z8B      0.675900
      3 N3          2.2610   -0.4000    1.3490 nb        1 Z8B     -0.611000
      4 C4          1.6650    0.0480    2.4830 ca        1 Z8B      0.468800
      5 C5          0.2090   -0.0430    2.7070 ca        1 Z8B     -0.136200
      6 C6         -0.5370   -0.6370    1.6710 ca        1 Z8B      0.523200
      7 N6         -1.9960   -0.7640    1.8420 n4        1 Z8B     -0.816300
      8 N7         -0.1160    0.4990    3.9480 nc        1 Z8B     -0.559100
      9 C8          1.0660    0.9000    4.4790 cd        1 Z8B      0.441800
     10 BR8         1.1290    1.7250    6.1460 br        1 Z8B      0.099700
     11 N9          2.1830    0.6850    3.6310 na        1 Z8B     -0.233000
     12 C1'         3.6270    0.7390    3.8610 c3        1 Z8B      0.205800
     13 C2'         4.1620    1.9360    4.7070 c3        1 Z8B      0.087100
     14 O2'         5.0840    2.6720    3.9470 oh        1 Z8B     -0.567800
     15 C3'         4.8150    1.2810    5.9490 c3        1 Z8B      0.089100
     16 O3'         6.2030    1.5470    5.9590 oh        1 Z8B     -0.582800
     17 C4'         4.6510   -0.2390    5.7650 c3        1 Z8B      0.101100
     18 C5'         3.8070   -0.8680    6.8830 c3        1 Z8B      0.144800
     19 O5'         4.0730   -0.4680    4.4700 os        1 Z8B     -0.400600
     20 N51         3.0740   -2.0730    6.5730 n2        1 Z8B     -0.447200
     21 N52         3.6390   -3.0790    6.0690 n1        1 Z8B      0.216000
     22 N53         3.9430   -4.0680    5.6080 n1        1 Z8B     -0.014000
     23 H2          1.8620   -1.3280   -0.4950 h5        1 Z8B      0.103100
     24 H1N6       -2.3900    0.1740    1.9880 hn        1 Z8B      0.479467
     25 H2N6       -2.4310   -1.2000    1.0180 hn        1 Z8B      0.479467
     26 H1'         4.1040    0.7590    2.8290 h2        1 Z8B      0.137700
     27 H2'         3.3680    2.6800    4.9810 h1        1 Z8B      0.109700
     28 HO2'        5.8990    2.1510    3.8590 ho        1 Z8B      0.433000
     29 H3'         4.3340    1.6440    6.8950 h1        1 Z8B      0.075700
     30 HO3'        6.3170    2.4760    6.2060 ho        1 Z8B      0.431000
     31 H4'         5.6620   -0.7390    5.7130 h1        1 Z8B      0.111700
     32 H15'        4.4990   -1.0080    7.7660 h1        1 Z8B      0.074200
     33 H25'        2.9840   -0.1660    7.2000 h1        1 Z8B      0.074200
     34 H63        -2.1760   -1.3400    2.6750 hn        1 Z8B      0.479467
@<TRIPOS>BOND
     1    1    2 ar  
     2    1    6 ar  
     3    2    3 ar  
     4    2   23 1   
     5    3    4 ar  
     6    4    5 ar  
     7    4   11 1   
     8    5    6 ar  
     9    5    8 1   
    10    6    7 1   
    11    7   24 1   
    12    7   25 1   
    13    7   34 1   
    14    8    9 2   
    15    9   10 1   
    16    9   11 1   
    17   11   12 1   
    18   12   13 1   
    19   12   19 1   
    20   12   26 1   
    21   13   14 1   
    22   13   15 1   
    23   13   27 1   
    24   14   28 1   
    25   15   16 1   
    26   15   17 1   
    27   15   29 1   
    28   16   30 1   
    29   17   18 1   
    30   17   19 1   
    31   17   31 1   
    32   18   20 1   
    33   18   32 1   
    34   18   33 1   
    35   20   21 1   
    36   21   22 3   
@<TRIPOS>SUBSTRUCTURE
     1 Z8B         1 TEMP              0 ****  ****    0 ROOT
