@<TRIPOS>MOLECULE
Z8R
   35    36     1     0     0
SMALL
bcc


@<TRIPOS>ATOM
      1 C2           0.0000     0.0000     0.0000 ca         1 Z8R      -0.082000
      2 O2          -8.7320    -0.9860     2.8460 o          1 Z8R      -0.591800
      3 C4           0.0150     0.0000     2.4100 ca         1 Z8R      -0.119000
      4 C5           1.3980    -0.0010     2.4060 ca         1 Z8R      -0.161000
      5 C7          -2.1740     0.0010     1.2160 cp         1 Z8R       0.027000
      6 C6           2.0890     0.0000     1.2110 ca         1 Z8R      -0.034000
      7 C8          -2.8660     0.0010     2.4250 ca         1 Z8R      -0.117000
      8 C1           1.3940     0.0000     0.0000 ca         1 Z8R      -0.107600
      9 C10         -2.8790     0.0070     0.0140 ca         1 Z8R      -0.117000
     10 C11         -4.2600     0.0140     0.0280 ca         1 Z8R      -0.083500
     11 C12         -4.9420     0.0150     1.2310 ca         1 Z8R      -0.158300
     12 C13         -6.4490     0.0210     1.2400 c3         1 Z8R       0.295100
     13 C14         -9.4730    -0.8860     0.2850 c3         1 Z8R       0.005700
     14 C3          -0.6900     0.0000     1.2070 cp         1 Z8R      -0.082000
     15 C9          -4.2460     0.0070     2.4260 ca         1 Z8R      -0.083500
     16 N           -6.9440    -1.3570     1.2390 n7         1 Z8R      -0.591100
     17 O            1.5300    -0.0010    -2.3320 o          1 Z8R      -0.883300
     18 O1           3.4830    -0.0000    -1.2770 o          1 Z8R      -0.883300
     19 O3          -8.6310    -3.0850     1.5390 o          1 Z8R      -0.591800
     20 S           -8.5250    -1.6700     1.6180 s6         1 Z8R       0.949900
     21 H           -0.3900    -0.0040    -1.0110 ha         1 Z8R       0.143000
     22 H1          -0.5220     0.0010     3.3510 ha         1 Z8R       0.091000
     23 H2           1.9400    -0.0030     3.3430 ha         1 Z8R       0.086000
     24 H3           3.1600     0.0000     1.3750 ha         1 Z8R       0.115000
     25 H4          -2.3220    -0.0040     3.3620 ha         1 Z8R       0.122000
     26 H6          -2.3460     0.0070    -0.9290 ha         1 Z8R       0.122000
     27 H7          -4.8100     0.0190    -0.9060 ha         1 Z8R       0.098000
     28 H9          -6.8130     0.5360     0.3590 h1         1 Z8R       0.008700
     29 H8          -6.8030     0.5310     2.1280 h1         1 Z8R       0.008700
     30 H13         -9.4500     0.1900     0.4100 h1         1 Z8R       0.059700
     31 H11         -9.0370    -1.1480    -0.6710 h1         1 Z8R       0.059700
     32 H12        -10.5000    -1.2320     0.3200 h1         1 Z8R       0.059700
     33 H5          -4.7860     0.0070     3.3660 ha         1 Z8R       0.098000
     34 H10         -6.3260    -2.1100     1.0090 hn         1 Z8R       0.361800
     35 C            2.1350    -0.0000    -1.2790 c          1 Z8R       0.974200
@<TRIPOS>BOND
     1     1     8 ar  
     2     1    14 ar  
     3     1    21 1   
     4     2    20 2   
     5     3     4 ar  
     6     3    14 ar  
     7     3    22 1   
     8     4     6 ar  
     9     4    23 1   
    10     5     7 ar  
    11     5     9 ar  
    12     5    14 1   
    13     6     8 ar  
    14     6    24 1   
    15     7    15 ar  
    16     7    25 1   
    17     8    35 1   
    18     9    10 ar  
    19     9    26 1   
    20    10    11 ar  
    21    10    27 1   
    22    11    12 1   
    23    11    15 ar  
    24    12    16 1   
    25    12    28 1   
    26    12    29 1   
    27    13    20 1   
    28    13    30 1   
    29    13    31 1   
    30    13    32 1   
    31    15    33 1   
    32    16    20 1   
    33    16    34 1   
    34    17    35 1   
    35    18    35 1   
    36    19    20 2   
@<TRIPOS>SUBSTRUCTURE
     1 Z8R         1 TEMP              0 ****  ****    0 ROOT
