@<TRIPOS>MOLECULE
molecule
   35    36     1     0     0
SMALL
bcc


@<TRIPOS>ATOM
      1 C2           0.0000     0.0000     0.0000 ca         1 Z8R      -0.100000
      2 O2          -8.7320    -0.9860     2.8460 o          1 Z8R      -0.635300
      3 C4           0.0150     0.0000     2.4100 ca         1 Z8R      -0.135000
      4 C5           1.3980    -0.0010     2.4060 ca         1 Z8R      -0.178000
      5 C7          -2.1740     0.0010     1.2160 cp         1 Z8R       0.016000
      6 C6           2.0890     0.0000     1.2110 ca         1 Z8R      -0.067000
      7 C8          -2.8660     0.0010     2.4250 ca         1 Z8R      -0.133500
      8 C1           1.3940     0.0000     0.0000 ca         1 Z8R      -0.107600
      9 C10         -2.8790     0.0070     0.0140 ca         1 Z8R      -0.133500
     10 C11         -4.2600     0.0140     0.0280 ca         1 Z8R      -0.113500
     11 C12         -4.9420     0.0150     1.2310 ca         1 Z8R      -0.138300
     12 C13         -6.4490     0.0210     1.2400 c3         1 Z8R       0.285100
     13 C14         -9.4730    -0.8860     0.2850 c3         1 Z8R      -0.253300
     14 C3          -0.6900     0.0000     1.2070 cp         1 Z8R      -0.081000
     15 C9          -4.2460     0.0070     2.4260 ca         1 Z8R      -0.113500
     16 N           -6.9440    -1.3570     1.2390 n7         1 Z8R      -0.908100
     17 O            1.5300    -0.0010    -2.3320 o          1 Z8R      -0.834800
     18 O1           3.4830    -0.0000    -1.2770 o          1 Z8R      -0.834800
     19 O3          -8.6310    -3.0850     1.5390 o          1 Z8R      -0.635300
     20 S           -8.5250    -1.6700     1.6180 s6         1 Z8R       1.325900
     21 H           -0.3900    -0.0040    -1.0110 ha         1 Z8R       0.164000
     22 H1          -0.5220     0.0010     3.3510 ha         1 Z8R       0.106000
     23 H2           1.9400    -0.0030     3.3430 ha         1 Z8R       0.108000
     24 H3           3.1600     0.0000     1.3750 ha         1 Z8R       0.143000
     25 H4          -2.3220    -0.0040     3.3620 ha         1 Z8R       0.145000
     26 H6          -2.3460     0.0070    -0.9290 ha         1 Z8R       0.145000
     27 H7          -4.8100     0.0190    -0.9060 ha         1 Z8R       0.123500
     28 H9          -6.8130     0.5360     0.3590 h1         1 Z8R       0.043200
     29 H8          -6.8030     0.5310     2.1280 h1         1 Z8R       0.043200
     30 H13         -9.4500     0.1900     0.4100 h1         1 Z8R       0.094367
     31 H11         -9.0370    -1.1480    -0.6710 h1         1 Z8R       0.094367
     32 H12        -10.5000    -1.2320     0.3200 h1         1 Z8R       0.094367
     33 H5          -4.7860     0.0070     3.3660 ha         1 Z8R       0.123500
     34 H10         -6.3260    -2.1100     1.0090 hn         1 Z8R       0.465800
     35 C            2.1350    -0.0000    -1.2790 c          1 Z8R       0.882200
@<TRIPOS>BOND
     1     1     8 ar
     2     1    14 ar
     3     2    20 2
     4     3     4 ar
     5     3    14 ar
     6     4     6 ar
     7     5     7 ar
     8     5     9 ar
     9     5    14 1
    10     6     8 ar
    11     7    15 ar
    12    35     8 1
    13    35    17 1
    14    35    18 1
    15     9    10 ar
    16    10    11 ar
    17    11    12 1
    18    11    15 ar
    19    12    16 1
    20    13    20 1
    21    16    20 1
    22    19    20 2
    23     1    21 1
    24     3    22 1
    25     4    23 1
    26     6    24 1
    27     7    25 1
    28     9    26 1
    29    10    27 1
    30    12    28 1
    31    12    29 1
    32    13    30 1
    33    13    31 1
    34    13    32 1
    35    15    33 1
    36    16    34 1
@<TRIPOS>SUBSTRUCTURE
     1 Z8R         1 TEMP              0 ****  ****    0 ROOT
