@<TRIPOS>MOLECULE
Z8Z
  101   104     1     0     0
SMALL
bcc


@<TRIPOS>ATOM
      1 O30         2.1650   -1.4460    0.3580 o         1 Z8Z     -0.495000
      2 C29         1.1810   -0.7680    0.6370 c         1 Z8Z      0.644100
      3 O31         0.2850   -0.9770    1.5950 os        1 Z8Z     -0.395900
      4 C32         0.5810   -1.9970    2.6410 c3        1 Z8Z      0.162100
      5 C33         1.0850   -1.3280    3.8260 cc        1 Z8Z     -0.002300
      6 O37         2.4830   -1.1580    3.9390 os        1 Z8Z     -0.402800
      7 C36         2.6700   -0.5870    5.2010 cc        1 Z8Z      0.553300
      8 N35         1.5230   -0.3870    5.8490 nd        1 Z8Z     -0.641000
      9 C34         0.5110   -0.8470    5.0050 cd        1 Z8Z      0.378900
     10 N28         0.8230    0.4550   -0.1620 n4        1 Z8Z     -0.656800
     11 C20         0.7980    0.2220   -1.6520 c3        1 Z8Z      0.139500
     12 C21        -0.1780    1.2210   -2.3190 c3        1 Z8Z     -0.042100
     13 C22        -1.4970    1.2620   -1.6380 ca        1 Z8Z     -0.198300
     14 C27        -1.8020    2.3140   -0.7610 ca        1 Z8Z     -0.130000
     15 C26        -3.0630    2.3930   -0.1750 ca        1 Z8Z     -0.104500
     16 C25        -4.0310    1.4270   -0.4600 ca        1 Z8Z     -0.073000
     17 C24        -3.7320    0.3790   -1.3340 ca        1 Z8Z     -0.104500
     18 C23        -2.4710    0.2970   -1.9230 ca        1 Z8Z     -0.130000
     19 C19         2.1710    0.3410   -2.3370 c3        1 Z8Z     -0.113400
     20 C18         3.0110   -0.9180   -2.2510 c3        1 Z8Z     -0.133400
     21 C17         3.7840   -1.2530   -3.5350 c3        1 Z8Z      0.145500
     22 C38         4.2760   -2.7040   -3.4880 c3        1 Z8Z     -0.074100
     23 C39         4.6910   -3.2270   -4.8170 ca        1 Z8Z     -0.158300
     24 C44         6.0250   -3.5850   -5.0520 ca        1 Z8Z     -0.143000
     25 C43         6.3830   -4.2060   -6.2520 ca        1 Z8Z     -0.142000
     26 C42         5.4120   -4.4820   -7.2180 ca        1 Z8Z     -0.095000
     27 C41         4.0810   -4.1270   -6.9880 ca        1 Z8Z     -0.142000
     28 C40         3.7230   -3.5040   -5.7920 ca        1 Z8Z     -0.143000
     29 N16         4.9560   -0.2860   -3.7290 n4        1 Z8Z     -0.662800
     30 C14         5.5240   -0.3000   -5.1080 c         1 Z8Z      0.527100
     31 O15         4.7680   -0.1430   -6.0570 o         1 Z8Z     -0.381100
     32 C13         7.0530   -0.4400   -5.2530 c3        1 Z8Z      0.065500
     33 C45         7.7160    0.9600   -5.1510 c3        1 Z8Z     -0.085700
     34 C47         7.2900    1.8890   -6.2640 c3        1 Z8Z     -0.133100
     35 C46         7.4410    1.5710   -3.7930 c3        1 Z8Z     -0.133100
     36 N12         7.3700   -1.1290   -6.5640 n4        1 Z8Z     -0.679800
     37 C10         8.8650   -1.3580   -6.7420 c         1 Z8Z      0.493100
     38 O11         9.5010   -1.6160   -5.7300 o         1 Z8Z     -0.348100
     39 N08         9.4720   -1.3600   -8.0910 n4        1 Z8Z     -0.585200
     40 C09         8.5960   -0.8900   -9.1850 c3        1 Z8Z      0.038100
     41 C07        10.1060   -2.7980   -8.4430 c3        1 Z8Z      0.172500
     42 C06        11.3630   -2.5850   -9.1290 cc        1 Z8Z      0.159600
     43 N05        11.3980   -2.0700  -10.4350 nc        1 Z8Z     -0.641000
     44 C48        12.6350   -2.9760   -8.6320 cd        1 Z8Z     -0.226400
     45 S49        13.7870   -2.7970   -9.7530 ss        1 Z8Z      0.268700
     46 C04        12.6400   -2.1280  -10.8950 cd        1 Z8Z      0.431700
     47 C02        13.1190   -1.7170  -12.2500 c3        1 Z8Z     -0.118000
     48 C03        12.7360   -0.2850  -12.5660 c3        1 Z8Z     -0.110100
     49 C01        14.6210   -1.9090  -12.3370 c3        1 Z8Z     -0.110100
     50 H1          1.2970   -2.7490    2.2190 h1        1 Z8Z      0.122200
     51 H2         -0.4510   -2.4210    2.8030 h1        1 Z8Z      0.122200
     52 H3          3.7050   -0.3920    5.5030 h5        1 Z8Z      0.114100
     53 H4         -0.5400   -0.8110    5.3120 h4        1 Z8Z      0.085100
     54 H5         -0.1320    0.7680    0.1290 hn        1 Z8Z      0.486800
     55 H6          0.3860   -0.8230   -1.7950 hx        1 Z8Z      0.117700
     56 H7          0.2860    2.2430   -2.3400 hc        1 Z8Z      0.084700
     57 H8         -0.3140    0.8830   -3.3830 hc        1 Z8Z      0.084700
     58 H9         -1.0660    3.1110   -0.5710 ha        1 Z8Z      0.131500
     59 H10        -3.3060    3.2320    0.5000 ha        1 Z8Z      0.171500
     60 H11        -5.0350    1.5000   -0.0080 ha        1 Z8Z      0.179000
     61 H12        -4.5010   -0.3740   -1.5730 ha        1 Z8Z      0.171500
     62 H13        -2.2540   -0.5150   -2.6340 ha        1 Z8Z      0.131500
     63 H14         1.9540    0.5790   -3.4160 hc        1 Z8Z      0.073200
     64 H15         2.7360    1.2160   -1.9170 hc        1 Z8Z      0.073200
     65 H16         2.3390   -1.8040   -2.0540 hc        1 Z8Z      0.114700
     66 H17         3.7040   -0.8720   -1.3670 hc        1 Z8Z      0.114700
     67 H18         3.1150   -1.1070   -4.4400 hx        1 Z8Z      0.129700
     68 H19         3.4150   -3.3390   -3.1190 hc        1 Z8Z      0.114200
     69 H20         5.0940   -2.8260   -2.7270 hc        1 Z8Z      0.114200
     70 H21         6.7730   -3.4890   -4.2480 ha        1 Z8Z      0.152000
     71 H22         7.4070   -4.5910   -6.3840 ha        1 Z8Z      0.174500
     72 H23         5.6820   -5.0300   -8.1390 ha        1 Z8Z      0.183000
     73 H24         3.3040   -4.3770   -7.7340 ha        1 Z8Z      0.174500
     74 H25         2.6610   -3.2720   -5.6010 ha        1 Z8Z      0.152000
     75 H26         5.6870   -0.5030   -3.0390 hn        1 Z8Z      0.475300
     76 H27         7.4730   -1.1070   -4.4340 hx        1 Z8Z      0.155700
     77 H28         8.8340    0.7910   -5.2170 hc        1 Z8Z      0.105700
     78 H29         6.1770    1.9420   -6.3610 hc        1 Z8Z      0.077033
     79 H30         7.6600    2.9290   -6.0460 hc        1 Z8Z      0.077033
     80 H31         7.7250    1.5860   -7.2470 hc        1 Z8Z      0.077033
     81 H32         6.4190    2.0190   -3.7430 hc        1 Z8Z      0.077033
     82 H33         8.1710    2.4100   -3.6190 hc        1 Z8Z      0.077033
     83 H34         7.5860    0.8330   -2.9680 hc        1 Z8Z      0.077033
     84 H35         6.9000   -2.0700   -6.5670 hn        1 Z8Z      0.495800
     85 H36         7.7240   -1.5820   -9.3260 hx        1 Z8Z      0.130700
     86 H37         9.1940   -0.9030  -10.1520 hx        1 Z8Z      0.130700
     87 H38         8.2590    0.1680   -9.0120 hx        1 Z8Z      0.130700
     88 H39         9.3160   -3.2820   -9.0840 hx        1 Z8Z      0.116700
     89 H40        10.2450   -3.3340   -7.4660 hx        1 Z8Z      0.116700
     90 H41        12.7910   -3.3900   -7.6290 h4        1 Z8Z      0.212000
     91 H42        12.6200   -2.3970  -13.0070 hc        1 Z8Z      0.111700
     92 H43        13.1140   -0.0220  -13.5870 hc        1 Z8Z      0.063700
     93 H44        11.6280   -0.1590  -12.5580 hc        1 Z8Z      0.063700
     94 H45        13.1910    0.4230  -11.8330 hc        1 Z8Z      0.063700
     95 H46        15.1600   -1.1900  -11.6710 hc        1 Z8Z      0.063700
     96 H47        14.9610   -1.7220  -13.3870 hc        1 Z8Z      0.063700
     97 H48        14.9120   -2.9560  -12.0670 hc        1 Z8Z      0.063700
     98 H282        1.4870    1.1990    0.0740 hn        1 Z8Z      0.486800
     99 H162        4.6030    0.6670   -3.5390 hn        1 Z8Z      0.475300
    100 H122        6.9850   -0.5580   -7.3330 hn        1 Z8Z      0.495800
    101 H081       10.2930   -0.7160   -8.0360 hn        1 Z8Z      0.499800
@<TRIPOS>BOND
     1    1    2 2
     2    2    3 1
     3    2   10 1
     4    3    4 1
     5    4    5 1
     6    4   50 1
     7    4   51 1
     8    5    6 1
     9    5    9 2
    10    6    7 1
    11    7    8 2
    12    7   52 1
    13    8    9 1
    14    9   53 1
    15   10   11 1
    16   10   54 1
    17   10   98 1
    18   11   12 1
    19   11   19 1
    20   11   55 1
    21   12   13 1
    22   12   56 1
    23   12   57 1
    24   13   14 ar
    25   13   18 ar
    26   14   15 ar
    27   14   58 1
    28   15   16 ar
    29   15   59 1
    30   16   17 ar
    31   16   60 1
    32   17   18 ar
    33   17   61 1
    34   18   62 1
    35   19   20 1
    36   19   63 1
    37   19   64 1
    38   20   21 1
    39   20   65 1
    40   20   66 1
    41   21   22 1
    42   21   29 1
    43   21   67 1
    44   22   23 1
    45   22   68 1
    46   22   69 1
    47   23   24 ar
    48   23   28 ar
    49   24   25 ar
    50   24   70 1
    51   25   26 ar
    52   25   71 1
    53   26   27 ar
    54   26   72 1
    55   27   28 ar
    56   27   73 1
    57   28   74 1
    58   29   30 1
    59   29   75 1
    60   29   99 1
    61   30   31 2
    62   30   32 1
    63   32   33 1
    64   32   36 1
    65   32   76 1
    66   33   34 1
    67   33   35 1
    68   33   77 1
    69   34   78 1
    70   34   79 1
    71   34   80 1
    72   35   81 1
    73   35   82 1
    74   35   83 1
    75   36   37 1
    76   36   84 1
    77   36  100 1
    78   37   38 2
    79   37   39 1
    80   39   40 1
    81   39   41 1
    82   39  101 1
    83   40   85 1
    84   40   86 1
    85   40   87 1
    86   41   42 1
    87   41   88 1
    88   41   89 1
    89   42   43 1
    90   42   44 2
    91   43   46 2
    92   44   45 1
    93   44   90 1
    94   45   46 1
    95   46   47 1
    96   47   48 1
    97   47   49 1
    98   47   91 1
    99   48   92 1
   100   48   93 1
   101   48   94 1
   102   49   95 1
   103   49   96 1
   104   49   97 1
@<TRIPOS>SUBSTRUCTURE
     1 Z8Z         1 TEMP              0 ****  ****    0 ROOT
