@<TRIPOS>MOLECULE
Z90
   79    82     1     0     0
SMALL
bcc


@<TRIPOS>ATOM
      1 OAA          0.0000     0.0000     0.0000 o          1 Z90      -0.914300
      2 OAB          6.8330    -0.4230   -10.3740 o          1 Z90      -0.895800
      3 OAC          1.9460     0.0000     1.0460 o          1 Z90      -0.914300
      4 OAD          8.9600     0.1520   -10.1050 o          1 Z90      -0.895800
      5 CAE          4.9290     4.8220     8.3660 ca         1 Z90      -0.112000
      6 CAF          4.9660     3.4450     8.4680 ca         1 Z90      -0.100500
      7 CAG          5.7150     5.4680     7.4280 ca         1 Z90      -0.100500
      8 CAH         11.4680    -3.4360    -2.9900 ca         1 Z90      -0.147000
      9 CAI         12.1030    -3.0660    -1.8200 ca         1 Z90      -0.079000
     10 CAJ          5.7910     2.7120     7.6360 ca         1 Z90      -0.096000
     11 CAK          6.5440     4.7350     6.6000 ca         1 Z90      -0.096000
     12 CAL         10.1540    -3.0670    -3.2140 ca         1 Z90      -0.053000
     13 CAM         11.4260    -2.3260    -0.8690 ca         1 Z90      -0.224000
     14 CAN          7.6550     0.0090     3.7160 ca         1 Z90      -0.099000
     15 CAO          8.4030     2.0310     2.6770 ca         1 Z90      -0.099000
     16 CAP          8.4760    -0.7250     2.8790 ca         1 Z90      -0.073000
     17 CAQ          9.2210     1.2970     1.8370 ca         1 Z90      -0.073000
     18 CAR          5.8370     0.3570    -6.4020 ca         1 Z90      -0.131500
     19 CAS          8.1220     1.0020    -6.0460 ca         1 Z90      -0.131500
     20 CAT          6.1130     0.0830    -7.7260 ca         1 Z90      -0.079500
     21 CAU          8.4140     0.7230    -7.3650 ca         1 Z90      -0.079500
     22 CAV          3.6000    -0.0000    -1.0250 c3         1 Z90      -0.016400
     23 CAW          4.3640    -0.0000    -2.3510 c3         1 Z90      -0.043400
     24 CAX          2.0950    -0.0010    -1.3050 c3         1 Z90      -0.133400
     25 CAY          7.4780     2.5570     5.7930 c3         1 Z90       0.029900
     26 CBA          8.0390    -1.9320    -2.5090 c3         1 Z90       0.020900
     27 CBB          5.8690     0.0000    -2.0710 c3         1 Z90       0.132800
     28 CBC          7.9980    -0.5220    -3.1000 c3         1 Z90       0.141800
     29 CBD         10.1550    -0.8790     1.0290 c3         1 Z90       0.261700
     30 CBE          6.5290     1.1110    -4.1190 c3         1 Z90       0.205100
     31 OBF          9.4390    -1.2280    -0.1580 os         1 Z90      -0.285900
     32 CBG          1.3420     0.0000     0.0000 c          1 Z90       0.982600
     33 CBH          7.7100    -0.0250    -9.6340 c          1 Z90       0.979200
     34 CBI          6.5780     3.3570     6.7000 ca         1 Z90      -0.081300
     35 CBJ          7.6170     1.3860     3.6120 ca         1 Z90      -0.075300
     36 CBK          9.2590    -0.0800     1.9400 ca         1 Z90      -0.115300
     37 CBL          6.8380     0.8150    -5.5640 ca         1 Z90      -0.114300
     38 CBM          7.4080     0.2650    -8.2180 ca         1 Z90      -0.112600
     39 CBN          9.4710    -2.3330    -2.2640 ca         1 Z90      -0.104300
     40 CBO         10.1080    -1.9550    -1.0900 ca         1 Z90       0.149100
     41 NBP          6.6020    -0.1310    -3.3380 n3         1 Z90      -0.529600
     42 HAG          5.6870     6.5480     7.3490 ha         1 Z90       0.097500
     43 HAH         12.0020    -4.0140    -3.7350 ha         1 Z90       0.100000
     44 HAI         13.1330    -3.3560    -1.6470 ha         1 Z90       0.089000
     45 HAJ          5.8190     1.6310     7.7150 ha         1 Z90       0.106000
     46 HAK          7.1600     5.2410     5.8660 ha         1 Z90       0.106000
     47 HAL          9.6590    -3.3590    -4.1320 ha         1 Z90       0.119000
     48 HAM         11.9240    -2.0360     0.0490 ha         1 Z90       0.110000
     49 HAN          7.0400    -0.4960     4.4510 ha         1 Z90       0.106000
     50 HAO          8.3730     3.1110     2.5960 ha         1 Z90       0.106000
     51 HAP          8.5060    -1.8050     2.9610 ha         1 Z90       0.105000
     52 HAQ          9.8360     1.8030     1.1020 ha         1 Z90       0.105000
     53 HAR          4.8340     0.2140    -6.0190 ha         1 Z90       0.091500
     54 HAS          8.9010     1.3590    -5.3840 ha         1 Z90       0.091500
     55 HAT          5.3280    -0.2730    -8.3820 ha         1 Z90       0.119500
     56 HAU          9.4200     0.8680    -7.7410 ha         1 Z90       0.119500
     57 HAV          3.8620    -0.8850    -0.4570 hc         1 Z90       0.016700
     58 HAVA         3.8610     0.8850    -0.4580 hc         1 Z90       0.016700
     59 HAW          4.1030    -0.8850    -2.9190 hc         1 Z90       0.016200
     60 HAWA         4.1020     0.8840    -2.9190 hc         1 Z90       0.016200
     61 HAX          1.8330    -0.8860    -1.8730 hc         1 Z90       0.005700
     62 HAXA         1.8330     0.8840    -1.8740 hc         1 Z90       0.005700
     63 HAY          7.7940     1.6550     6.3020 hc         1 Z90       0.015700
     64 HAYA         8.3480     3.1490     5.5350 hc         1 Z90       0.015700
     65 HBA          7.5820    -2.6280    -3.2020 hc         1 Z90       0.035700
     66 HBAA         7.4950    -1.9460    -1.5720 hc         1 Z90       0.035700
     67 HBB          6.1460     0.9290    -1.5880 h1         1 Z90       0.009700
     68 HBBA         6.1160    -0.8320    -1.4230 h1         1 Z90       0.009700
     69 HBC          8.5410    -0.5070    -4.0370 h1         1 Z90       0.016200
     70 HBCA         8.4540     0.1740    -2.4070 h1         1 Z90       0.016200
     71 HBD         10.4730    -1.7820     1.5370 h1         1 Z90      -0.002300
     72 HBDA        11.0230    -0.2870     0.7670 h1         1 Z90      -0.002300
     73 HBE          7.2500     1.8230    -3.7340 h1         1 Z90       0.009200
     74 HBEA         5.5320     1.5290    -4.0410 h1         1 Z90       0.009200
     75 HAE          4.2800     5.3960     9.0170 ha         1 Z90       0.096000
     76 CAZ          6.7170     2.1850     4.5190 c3         1 Z90       0.028900
     77 HAF          4.3500     2.9390     9.2020 ha         1 Z90       0.097500
     78 HAZ          6.4000     3.0880     4.0110 hc         1 Z90       0.031700
     79 HAZA         5.8480     1.5930     4.7780 hc         1 Z90       0.031700
@<TRIPOS>BOND
     1     1    32 1   
     2     2    33 1   
     3     3    32 1   
     4     4    33 1   
     5     5     6 ar  
     6     5     7 ar  
     7     5    75 1   
     8     6    10 ar  
     9     6    77 1   
    10     7    11 ar  
    11     7    42 1   
    12     8     9 ar  
    13     8    12 ar  
    14     8    43 1   
    15     9    13 ar  
    16     9    44 1   
    17    10    34 ar  
    18    10    45 1   
    19    11    34 ar  
    20    11    46 1   
    21    12    39 ar  
    22    12    47 1   
    23    13    40 ar  
    24    13    48 1   
    25    14    16 ar  
    26    14    35 ar  
    27    14    49 1   
    28    15    17 ar  
    29    15    35 ar  
    30    15    50 1   
    31    16    36 ar  
    32    16    51 1   
    33    17    36 ar  
    34    17    52 1   
    35    18    20 ar  
    36    18    37 ar  
    37    18    53 1   
    38    19    21 ar  
    39    19    37 ar  
    40    19    54 1   
    41    20    38 ar  
    42    20    55 1   
    43    21    38 ar  
    44    21    56 1   
    45    22    23 1   
    46    22    24 1   
    47    22    57 1   
    48    22    58 1   
    49    23    27 1   
    50    23    59 1   
    51    23    60 1   
    52    24    32 1   
    53    24    61 1   
    54    24    62 1   
    55    25    34 1   
    56    25    63 1   
    57    25    64 1   
    58    25    76 1   
    59    26    28 1   
    60    26    39 1   
    61    26    65 1   
    62    26    66 1   
    63    27    41 1   
    64    27    67 1   
    65    27    68 1   
    66    28    41 1   
    67    28    69 1   
    68    28    70 1   
    69    29    31 1   
    70    29    36 1   
    71    29    71 1   
    72    29    72 1   
    73    30    37 1   
    74    30    41 1   
    75    30    73 1   
    76    30    74 1   
    77    31    40 1   
    78    33    38 1   
    79    35    76 1   
    80    39    40 ar  
    81    76    78 1   
    82    76    79 1   
@<TRIPOS>SUBSTRUCTURE
     1 Z90         1 TEMP              0 ****  ****    0 ROOT
