@<TRIPOS>MOLECULE
Z92
   40    42     1     0     0
SMALL
bcc


@<TRIPOS>ATOM
      1 C1           0.0000     0.0000     0.0000 c3         1 Z92       0.241700
      2 O2           1.4290     0.0000     0.0000 os         1 Z92      -0.288900
      3 C3           2.0470     0.0000     1.2110 ca         1 Z92       0.129100
      4 C4           1.2890     0.0010     2.3740 ca         1 Z92      -0.183000
      5 C5           1.9120     0.0010     3.6050 ca         1 Z92      -0.082000
      6 C6           3.3040     0.0010     3.6830 ca         1 Z92      -0.128900
      7 C7           4.0660     0.0000     2.5140 ca         1 Z92      -0.164000
      8 C8           3.4380    -0.0060     1.2830 ca         1 Z92       0.119100
      9 O9           4.1770    -0.0060     0.1410 os         1 Z92      -0.289900
     10 C10          5.5990    -0.0010     0.2900 c3         1 Z92       0.239700
     11 C11          3.9740     0.0020     5.0040 cc         1 Z92       0.324600
     12 N12          4.2410    -1.0450     5.7370 nd         1 Z92      -0.511300
     13 N13          4.8770    -0.6840     6.9240 ns         1 Z92       0.050100
     14 C14          5.0380     0.6530     6.9810 c          1 Z92       0.538200
     15 O15          5.5570     1.2900     7.8820 o          1 Z92      -0.640500
     16 C16          4.4670     1.1880     5.7350 cc         1 Z92       0.024000
     17 N17          4.4030     2.4510     5.3560 n2         1 Z92      -0.305400
     18 N18          3.7690     2.7690     4.2790 nu         1 Z92      -0.002700
     19 C19          3.7970     4.0850     3.8170 ca         1 Z92      -0.016400
     20 C20          3.1140     4.4310     2.6570 ca         1 Z92      -0.113000
     21 C21          3.1440     5.7340     2.2010 ca         1 Z92      -0.071500
     22 C22          3.8540     6.6950     2.8990 ca         1 Z92      -0.050600
     23 Cl23         3.8900     8.3330     2.3240 cl         1 Z92      -0.020400
     24 C24          4.5350     6.3550     4.0550 ca         1 Z92      -0.071500
     25 C25          4.5040     5.0550     4.5180 ca         1 Z92      -0.113000
     26 H1          -0.3610     0.8850     0.5100 h1         1 Z92      -0.000633
     27 H1A         -0.3610    -0.0000    -1.0210 h1         1 Z92      -0.000633
     28 H1B         -0.3610    -0.8840     0.5110 h1         1 Z92      -0.000633
     29 H4           0.2080     0.0010     2.3140 ha         1 Z92       0.129000
     30 H5           1.3190     0.0010     4.5120 ha         1 Z92       0.116000
     31 H7           5.1480    -0.0020     2.5710 ha         1 Z92       0.135000
     32 H10          5.9040     0.8960     0.8160 h1         1 Z92       0.000033
     33 H10A         6.0640    -0.0210    -0.6880 h1         1 Z92       0.000033
     34 H10B         5.9060    -0.8730     0.8540 h1         1 Z92       0.000033
     35 HN13         5.1730    -1.3270     7.6330 hn         1 Z92       0.212500
     36 HN18         3.2060     2.0870     3.8110 hn         1 Z92       0.303800
     37 H20          2.5580     3.6780     2.1110 ha         1 Z92       0.127000
     38 H21          2.6120     6.0040     1.2970 ha         1 Z92       0.118500
     39 H24          5.0880     7.1110     4.6000 ha         1 Z92       0.118500
     40 H25          5.0370     4.7890     5.4230 ha         1 Z92       0.127000
@<TRIPOS>BOND
     1     1     2 1   
     2     1    26 1   
     3     1    27 1   
     4     1    28 1   
     5     2     3 1   
     6     3     4 ar  
     7     3     8 ar  
     8     4     5 ar  
     9     4    29 1   
    10     5     6 ar  
    11     5    30 1   
    12     6     7 ar  
    13     6    11 1   
    14     7     8 ar  
    15     7    31 1   
    16     8     9 1   
    17     9    10 1   
    18    10    32 1   
    19    10    33 1   
    20    10    34 1   
    21    11    12 2   
    22    11    16 1   
    23    12    13 1   
    24    13    14 1   
    25    13    35 1   
    26    14    15 2   
    27    14    16 1   
    28    16    17 2   
    29    17    18 1   
    30    18    19 1   
    31    18    36 1   
    32    19    20 ar  
    33    19    25 ar  
    34    20    21 ar  
    35    20    37 1   
    36    21    22 ar  
    37    21    38 1   
    38    22    23 1   
    39    22    24 ar  
    40    24    25 ar  
    41    24    39 1   
    42    25    40 1   
@<TRIPOS>SUBSTRUCTURE
     1 Z92         1 TEMP              0 ****  ****    0 ROOT
