@<TRIPOS>MOLECULE
molecule
   40    42     1     0     0
SMALL
bcc


@<TRIPOS>ATOM
      1 C1           0.0000     0.0000     0.0000 c3         1 Z92       0.125700
      2 O2           1.4290     0.0000     0.0000 os         1 Z92      -0.307900
      3 C3           2.0470     0.0000     1.2110 ca         1 Z92       0.129100
      4 C4           1.2890     0.0010     2.3740 ca         1 Z92      -0.197000
      5 C5           1.9120     0.0010     3.6050 ca         1 Z92      -0.109000
      6 C6           3.3040     0.0010     3.6830 ca         1 Z92      -0.133900
      7 C7           4.0660     0.0000     2.5140 ca         1 Z92      -0.168000
      8 C8           3.4380    -0.0060     1.2830 ca         1 Z92       0.116100
      9 O9           4.1770    -0.0060     0.1410 os         1 Z92      -0.308900
     10 C10          5.5990    -0.0010     0.2900 c3         1 Z92       0.123700
     11 C11          3.9740     0.0020     5.0040 cc         1 Z92       0.303600
     12 N12          4.2410    -1.0450     5.7370 nd         1 Z92      -0.405300
     13 N13          4.8770    -0.6840     6.9240 ns         1 Z92      -0.343900
     14 C14          5.0380     0.6530     6.9810 c          1 Z92       0.623200
     15 O15          5.5570     1.2900     7.8820 o          1 Z92      -0.591500
     16 C16          4.4670     1.1880     5.7350 cc         1 Z92       0.096000
     17 N17          4.4030     2.4510     5.3560 n2         1 Z92      -0.269400
     18 N18          3.7690     2.7690     4.2790 nu         1 Z92      -0.418700
     19 C19          3.7970     4.0850     3.8170 ca         1 Z92       0.157600
     20 C20          3.1140     4.4310     2.6570 ca         1 Z92      -0.148000
     21 C21          3.1440     5.7340     2.2010 ca         1 Z92      -0.094500
     22 C22          3.8540     6.6950     2.8990 ca         1 Z92       0.006400
     23 Cl23         3.8900     8.3330     2.3240 cl         1 Z92      -0.105400
     24 C24          4.5350     6.3550     4.0550 ca         1 Z92      -0.094500
     25 C25          4.5040     5.0550     4.5180 ca         1 Z92      -0.148000
     26 H1          -0.3610     0.8850     0.5100 h1         1 Z92       0.044033
     27 H1A         -0.3610    -0.8840     0.5110 h1         1 Z92       0.044033
     28 H1B         -0.3610    -0.0000    -1.0210 h1         1 Z92       0.044033
     29 H4           0.2080     0.0010     2.3140 ha         1 Z92       0.149000
     30 H5           1.3190     0.0010     4.5120 ha         1 Z92       0.147000
     31 H7           5.1480    -0.0020     2.5710 ha         1 Z92       0.156000
     32 H10          6.0640    -0.0210    -0.6880 h1         1 Z92       0.045033
     33 H10A         5.9060    -0.8730     0.8540 h1         1 Z92       0.045033
     34 H10B         5.9040     0.8960     0.8160 h1         1 Z92       0.045033
     35 HN13         5.1730    -1.3270     7.6330 hn         1 Z92       0.380500
     36 HN18         3.2060     2.0870     3.8110 hn         1 Z92       0.451800
     37 H20          2.5580     3.6780     2.1110 ha         1 Z92       0.155000
     38 H21          2.6120     6.0040     1.2970 ha         1 Z92       0.151000
     39 H24          5.0880     7.1110     4.6000 ha         1 Z92       0.151000
     40 H25          5.0370     4.7890     5.4230 ha         1 Z92       0.155000
@<TRIPOS>BOND
     1     2     1 1
     2     1    26 1
     3     1    27 1
     4     1    28 1
     5     3     2 1
     6     8     3 ar
     7     4     3 ar
     8     5     4 ar
     9     4    29 1
    10     6     5 ar
    11     5    30 1
    12    11     6 1
    13     6     7 ar
    14     7     8 ar
    15     7    31 1
    16     8     9 1
    17    10     9 1
    18    10    32 1
    19    10    33 1
    20    10    34 1
    21    12    11 2
    22    16    11 1
    23    13    12 1
    24    13    14 1
    25    13    35 1
    26    15    14 2
    27    14    16 1
    28    16    17 2
    29    17    18 1
    30    18    19 1
    31    18    36 1
    32    25    19 ar
    33    19    20 ar
    34    20    21 ar
    35    20    37 1
    36    22    21 ar
    37    21    38 1
    38    24    22 ar
    39    22    23 1
    40    25    24 ar
    41    24    39 1
    42    25    40 1
@<TRIPOS>SUBSTRUCTURE
     1 Z92         1 TEMP              0 ****  ****    0 ROOT
