@<TRIPOS>MOLECULE
molecule
   51    55     1     0     0
SMALL
bcc


@<TRIPOS>ATOM
      1 N1           0.0000     0.0000     0.0000 ns         1 Z93      -0.584500
      2 C2           1.3470     0.0000     0.0000 c          1 Z93       0.698500
      3 C3           1.7580     0.0000     1.4590 c3         1 Z93       0.052700
      4 N4           0.4720    -0.0000     2.1790 ns         1 Z93      -0.610900
      5 C5          -0.4940     0.0000     1.2440 c          1 Z93       0.799500
      6 O6          -1.6820     0.0010     1.4990 o          1 Z93      -0.611500
      7 O7           2.0800    -0.0010    -0.9670 o          1 Z93      -0.519500
      8 C8           2.5490    -1.2400     1.7870 ca         1 Z93      -0.138300
      9 C9           1.8950    -2.3840     2.2080 ca         1 Z93      -0.099000
     10 C10          2.6160    -3.5220     2.5100 ca         1 Z93      -0.115000
     11 C11          4.0040    -3.5170     2.3900 cp         1 Z93       0.014000
     12 C12          4.6570    -2.3620     1.9650 ca         1 Z93      -0.115000
     13 C13          3.9260    -1.2320     1.6610 ca         1 Z93      -0.099000
     14 C14          4.7840    -4.7370     2.7140 cp         1 Z93      -0.191300
     15 C15          6.1760    -4.7420     2.5960 ca         1 Z93      -0.076000
     16 C16          6.8570    -5.9060     2.9090 ca         1 Z93      -0.249300
     17 C17          6.1450    -7.0150     3.3260 ca         1 Z93       0.440200
     18 N18          4.8300    -6.9810     3.4270 nb         1 Z93      -0.679000
     19 C19          4.1400    -5.8950     3.1450 ca         1 Z93       0.441200
     20 N20          1.7110     2.4390     1.6280 n          1 Z93      -0.262400
     21 C21          1.3550     3.2290     2.6040 cc         1 Z93       0.438100
     22 C22          1.1990     2.8520     0.4380 c          1 Z93       0.677100
     23 C23          2.5610     1.2580     1.7920 c3         1 Z93       0.072000
     24 C24          0.4020     4.0820     0.6910 ca         1 Z93      -0.099600
     25 C25          0.5090     4.3130     2.0800 ca         1 Z93      -0.326900
     26 C26         -0.1320     5.4050     2.6490 ca         1 Z93       0.057000
     27 C27         -0.8740     6.2620     1.8510 ca         1 Z93      -0.231000
     28 C28         -0.9800     6.0340     0.4880 ca         1 Z93       0.241100
     29 C29         -0.3360     4.9350    -0.0960 ca         1 Z93      -0.060000
     30 O30          1.3630     2.3130    -0.6380 o          1 Z93      -0.426500
     31 O31         -1.7090     6.8790    -0.2830 os         1 Z93      -0.280900
     32 C32         -2.3400     7.9790     0.3760 c3         1 Z93       0.114700
     33 HN1         -0.5620    -0.0010    -0.8280 hn         1 Z93       0.382500
     34 HN4          0.3440    -0.0020     3.1720 hn         1 Z93       0.374500
     35 H9           0.8160    -2.3860     2.3010 ha         1 Z93       0.135000
     36 H10          2.1030    -4.4170     2.8400 ha         1 Z93       0.151000
     37 H12          5.7360    -2.3540     1.8680 ha         1 Z93       0.151000
     38 H13          4.4330    -0.3330     1.3300 ha         1 Z93       0.135000
     39 H15          6.7090    -3.8580     2.2670 ha         1 Z93       0.139000
     40 H16          7.9370    -5.9470     2.8300 ha         1 Z93       0.149000
     41 H17          6.6750    -7.9280     3.5690 h4         1 Z93       0.035100
     42 H19          3.0610    -5.9050     3.2400 h4         1 Z93       0.026100
     43 H21          2.0390     3.4240     3.4210 h4         1 Z93       0.088800
     44 H23          3.4120     1.3300     1.1250 h1         1 Z93       0.112200
     45 H23A         2.9090     1.2030     2.8160 h1         1 Z93       0.112200
     46 H26         -0.0520     5.5870     3.7140 ha         1 Z93       0.164000
     47 H27         -1.3750     7.1130     2.2950 ha         1 Z93       0.178000
     48 H29         -0.4190     4.7580    -1.1610 ha         1 Z93       0.192000
     49 H32         -3.0260     7.6060     1.1270 h1         1 Z93       0.067367
     50 H32A        -2.8850     8.5700    -0.3500 h1         1 Z93       0.067367
     51 H32B        -1.5860     8.5960     0.8500 h1         1 Z93       0.067367
@<TRIPOS>BOND
     1     1     2 1
     2     1     5 1
     3     2     3 1
     4     2     7 2
     5     3     4 1
     6     3     8 1
     7     3    23 1
     8     4     5 1
     9     5     6 2
    10     8     9 ar
    11     8    13 ar
    12     9    10 ar
    13    10    11 ar
    14    11    12 ar
    15    11    14 1
    16    12    13 ar
    17    14    15 ar
    18    14    19 ar
    19    15    16 ar
    20    16    17 ar
    21    17    18 ar
    22    18    19 ar
    23    20    21 2
    24    20    22 1
    25    20    23 1
    26    21    25 1
    27    22    24 1
    28    22    30 2
    29    24    25 ar
    30    24    29 ar
    31    25    26 ar
    32    26    27 ar
    33    27    28 ar
    34    28    29 ar
    35    28    31 1
    36    31    32 1
    37     1    33 1
    38     4    34 1
    39     9    35 1
    40    10    36 1
    41    12    37 1
    42    13    38 1
    43    15    39 1
    44    16    40 1
    45    17    41 1
    46    19    42 1
    47    21    43 1
    48    23    44 1
    49    23    45 1
    50    26    46 1
    51    27    47 1
    52    29    48 1
    53    32    49 1
    54    32    50 1
    55    32    51 1
@<TRIPOS>SUBSTRUCTURE
     1 Z93         1 TEMP              0 ****  ****    0 ROOT
