@<TRIPOS>MOLECULE
Z94
   28    29     1     0     0
SMALL
bcc


@<TRIPOS>ATOM
      1 C1           0.0000     0.0000     0.0000 c3         1 Z94      -0.021000
      2 C2          -0.5300     1.2400    -0.6730 ca         1 Z94      -0.132300
      3 C3           1.5150     0.0000     0.0000 c          1 Z94       0.616500
      4 N4          -0.3460    -0.0000     1.4310 ns         1 Z94      -0.204900
      5 C5          -0.9670     1.1800    -1.9830 ca         1 Z94      -0.061000
      6 C6          -0.5840     2.4330     0.0230 ca         1 Z94      -0.061000
      7 N7           1.8800     0.0000     1.2990 ns         1 Z94      -0.166500
      8 O8           2.2490     0.0000    -0.9660 o          1 Z94      -0.606500
      9 C9           0.8160    -0.0010     2.1090 c          1 Z94       0.603500
     10 C10         -1.4540     2.3140    -2.6040 ca         1 Z94      -0.115000
     11 C11         -1.0700     3.5710    -0.5910 ca         1 Z94      -0.115000
     12 O12          0.8910    -0.0000     3.3220 o          1 Z94      -0.695500
     13 C13         -1.5040     3.5150    -1.9090 ca         1 Z94      -0.074400
     14 N14         -1.9970     4.6660    -2.5340 ns         1 Z94      -0.040100
     15 C15         -2.9820     4.5670    -3.4480 c          1 Z94       0.560100
     16 C16         -3.4310     5.7890    -4.2080 c3         1 Z94      -0.068100
     17 O17         -3.5090     3.4950    -3.6590 o          1 Z94      -0.630100
     18 H1          -0.3790    -0.8940    -0.4810 h1         1 Z94       0.061700
     19 HN4         -1.2670    -0.0010     1.8240 hn         1 Z94       0.224500
     20 H5          -0.9270     0.2420    -2.5240 ha         1 Z94       0.110500
     21 H6          -0.2450     2.4760     1.0510 ha         1 Z94       0.110500
     22 HN7          2.8290    -0.0000     1.6160 hn         1 Z94       0.207500
     23 H10         -1.7940     2.2670    -3.6320 ha         1 Z94       0.126500
     24 H11         -1.1100     4.5070    -0.0460 ha         1 Z94       0.126500
     25 HN14        -1.6200     5.5630    -2.3000 hn         1 Z94       0.169500
     26 H16         -3.9380     6.4680    -3.5330 hc         1 Z94       0.025033
     27 H16A        -4.1090     5.4940    -5.0000 hc         1 Z94       0.025033
     28 H16B        -2.5680     6.2840    -4.6370 hc         1 Z94       0.025033
@<TRIPOS>BOND
     1     1     2 1   
     2     1     3 1   
     3     1     4 1   
     4     1    18 1   
     5     2     5 ar  
     6     2     6 ar  
     7     3     7 1   
     8     3     8 2   
     9     4     9 1   
    10     4    19 1   
    11     5    10 ar  
    12     5    20 1   
    13     6    11 ar  
    14     6    21 1   
    15     7     9 1   
    16     7    22 1   
    17     9    12 2   
    18    10    13 ar  
    19    10    23 1   
    20    11    13 ar  
    21    11    24 1   
    22    13    14 1   
    23    14    15 1   
    24    14    25 1   
    25    15    16 1   
    26    15    17 2   
    27    16    26 1   
    28    16    27 1   
    29    16    28 1   
@<TRIPOS>SUBSTRUCTURE
     1 Z94         1 TEMP              0 ****  ****    0 ROOT
