@<TRIPOS>MOLECULE
molecule
   69    73     1     0     0
SMALL
bcc


@<TRIPOS>ATOM
      1 Cl           0.0000     0.0000     0.0000 cl         1 Z96      -0.100400
      2 C1           3.8130     0.0000     1.1930 ca         1 Z96      -0.115000
      3 N1           7.9020     3.5010    -1.2560 n          1 Z96      -0.484800
      4 O1           9.8740     4.5190    -1.2240 o          1 Z96      -0.618000
      5 C2           6.5470    -1.2820    -0.5720 ca         1 Z96       0.439600
      6 N2           2.5660    -1.0020    -4.5920 na         1 Z96      -0.165900
      7 O2           8.1160     5.7440    -0.6500 os         1 Z96      -0.439900
      8 C3           6.3290    -1.5740    -1.9150 ca         1 Z96      -0.151100
      9 N3           0.6500    -0.0300    -4.7870 nc         1 Z96      -0.696000
     10 O3           4.9100     1.0620    -4.6210 oh         1 Z96      -0.606800
     11 C4           6.8290    -2.7790    -2.4370 ca         1 Z96      -0.092000
     12 N4           7.2220    -2.1240     0.1910 nb         1 Z96      -0.692000
     13 C5           7.5250    -3.6240    -1.5950 ca         1 Z96      -0.250300
     14 N5           6.5320     1.1370    -0.7080 n3         1 Z96      -0.727600
     15 C6           6.0150    -0.0170     0.0390 c3         1 Z96       0.179500
     16 C7           4.5150     0.0000     0.0000 ca         1 Z96      -0.069300
     17 C8           3.8230     0.0110    -1.2080 ca         1 Z96      -0.021800
     18 C9           4.5250     0.0240    -2.4950 ce         1 Z96      -0.051400
     19 C10          7.7050    -3.2590    -0.2720 ca         1 Z96       0.423200
     20 C11          3.9520     0.9080    -3.5730 c3         1 Z96       0.269600
     21 C12          5.6050    -0.6600    -2.7990 cf         1 Z96      -0.073200
     22 C13          2.4310     0.0020     1.1930 ca         1 Z96      -0.122000
     23 C14          1.7350     0.0020    -0.0040 ca         1 Z96       0.031400
     24 C15          2.4210     0.0140    -1.2000 ca         1 Z96      -0.125000
     25 C17          6.0310     2.3980    -0.1500 c3         1 Z96       0.144300
     26 C18          6.4460     3.5620    -1.0560 c3         1 Z96       0.120000
     27 C19          8.4920     2.2270    -1.6930 c3         1 Z96       0.120000
     28 C20          8.0000     1.1160    -0.7590 c3         1 Z96       0.144300
     29 C21          1.4950     0.8670    -4.2550 cc         1 Z96       0.316200
     30 C22         10.0380     6.5180     0.6290 c3         1 Z96      -0.105767
     31 C24          9.7290     7.1940    -1.7560 c3         1 Z96      -0.105767
     32 C25          8.6750     4.5860    -1.0490 c          1 Z96       0.759100
     33 C26          8.1980     8.0880     0.0030 c3         1 Z96      -0.105767
     34 C27          2.6990     0.2780    -4.1250 cd         1 Z96      -0.268900
     35 C28          1.2860    -1.1510    -4.9910 cd         1 Z96       0.400400
     36 C29          9.0080     6.8710    -0.4460 c3         1 Z96       0.177800
     37 H1           4.3510     0.0000     2.1330 ha         1 Z96       0.142000
     38 HO3          4.8100     1.9110    -5.0170 ho         1 Z96       0.413000
     39 H4           6.6730    -3.0390    -3.4770 ha         1 Z96       0.139000
     40 H5           7.9260    -4.5600    -1.9660 ha         1 Z96       0.141000
     41 H6           6.3430     0.0440     1.0700 h1         1 Z96       0.058700
     42 H10          8.2500    -3.9180     0.3930 h4         1 Z96       0.026100
     43 H11          3.7140     1.8790    -3.1560 h1         1 Z96       0.063700
     44 H12          5.9960    -0.5350    -3.8010 ha         1 Z96       0.155000
     45 H13          1.8920     0.0200     2.1320 ha         1 Z96       0.146000
     46 H15          1.8750     0.0180    -2.1360 ha         1 Z96       0.170000
     47 H17          6.4490     2.5450     0.8390 h1         1 Z96       0.048450
     48 H17A         4.9500     2.3590    -0.0880 h1         1 Z96       0.048450
     49 H18          6.1830     4.5010    -0.5850 h1         1 Z96       0.065700
     50 H18A         5.9440     3.4750    -2.0130 h1         1 Z96       0.065700
     51 H19          8.1810     2.0110    -2.7080 h1         1 Z96       0.065700
     52 H19A         9.5730     2.2910    -1.6430 h1         1 Z96       0.065700
     53 H20          8.3970     1.2810     0.2360 h1         1 Z96       0.048450
     54 H20A         8.3340     0.1560    -1.1330 h1         1 Z96       0.048450
     55 H21          1.2510     1.8860    -3.9790 h4         1 Z96       0.041100
     56 H22         10.8200     5.9080     0.1930 hc         1 Z96       0.049811
     57 H22A         9.5540     5.9690     1.4270 hc         1 Z96       0.049811
     58 H22B        10.4700     7.4280     1.0280 hc         1 Z96       0.049811
     59 H23          4.4760    -1.6200    -5.1830 h1         1 Z96       0.058700
     60 H23A         3.2490    -2.8940    -5.1710 h1         1 Z96       0.058700
     61 H23B         3.9150    -2.2930    -3.6460 h1         1 Z96       0.058700
     62 H24         10.0230     8.2360    -1.7600 hc         1 Z96       0.049811
     63 H24A         9.0640     7.0040    -2.5900 hc         1 Z96       0.049811
     64 H24B        10.6090     6.5690    -1.8470 hc         1 Z96       0.049811
     65 H26          7.4760     8.3440    -0.7630 hc         1 Z96       0.049811
     66 H26A         7.6790     7.8560     0.9250 hc         1 Z96       0.049811
     67 H26B         8.8650     8.9260     0.1650 hc         1 Z96       0.049811
     68 H28          0.8560    -2.0520    -5.4110 h5         1 Z96       0.066100
     69 C23          3.6200    -2.0180    -4.6520 c3         1 Z96       0.025600
@<TRIPOS>BOND
     1     1    23 1
     2    22     2 ar
     3     2    16 ar
     4     2    37 1
     5    26     3 1
     6     3    27 1
     7     3    32 1
     8    32     4 2
     9    12     5 ar
    10    15     5 1
    11     5     8 ar
    12    69     6 1
    13     6    34 1
    14     6    35 1
    15     7    32 1
    16     7    36 1
    17     8    11 ar
    18     8    21 1
    19    35     9 2
    20    29     9 1
    21    20    10 1
    22    10    38 1
    23    13    11 ar
    24    11    39 1
    25    12    19 ar
    26    19    13 ar
    27    13    40 1
    28    15    14 1
    29    25    14 1
    30    14    28 1
    31    16    15 1
    32    15    41 1
    33    16    17 ar
    34    24    17 ar
    35    17    18 1
    36    18    21 2
    37    18    20 1
    38    19    42 1
    39    20    34 1
    40    20    43 1
    41    21    44 1
    42    22    23 ar
    43    22    45 1
    44    23    24 ar
    45    24    46 1
    46    25    26 1
    47    25    47 1
    48    25    48 1
    49    26    49 1
    50    26    50 1
    51    28    27 1
    52    27    51 1
    53    27    52 1
    54    28    53 1
    55    28    54 1
    56    34    29 2
    57    29    55 1
    58    36    30 1
    59    30    56 1
    60    30    57 1
    61    30    58 1
    62    69    59 1
    63    69    60 1
    64    69    61 1
    65    31    36 1
    66    31    62 1
    67    31    63 1
    68    31    64 1
    69    33    36 1
    70    33    65 1
    71    33    66 1
    72    33    67 1
    73    35    68 1
@<TRIPOS>SUBSTRUCTURE
     1 Z96         1 TEMP              0 ****  ****    0 ROOT
