@<TRIPOS>MOLECULE
Z96
   69    73     1     0     0
SMALL
bcc


@<TRIPOS>ATOM
      1 Cl           0.0000     0.0000     0.0000 cl         1 Z96      -0.016400
      2 C1           3.8130     0.0000     1.1930 ca         1 Z96      -0.084000
      3 N1           7.9020     3.5010    -1.2560 n          1 Z96      -0.144800
      4 O1           9.8740     4.5190    -1.2240 o          1 Z96      -0.663000
      5 C2           6.5470    -1.2820    -0.5720 ca         1 Z96       0.381600
      6 N2           2.5660    -1.0020    -4.5920 na         1 Z96       0.327100
      7 O2           8.1160     5.7440    -0.6500 os         1 Z96      -0.419900
      8 C3           6.3290    -1.5740    -1.9150 ca         1 Z96      -0.137100
      9 N3           0.6500    -0.0300    -4.7870 nc         1 Z96      -0.620000
     10 O3           4.9100     1.0620    -4.6210 oh         1 Z96      -0.593800
     11 C4           6.8290    -2.7790    -2.4370 ca         1 Z96      -0.071000
     12 N4           7.2220    -2.1240     0.1910 nb         1 Z96      -0.573000
     13 C5           7.5250    -3.6240    -1.5950 ca         1 Z96      -0.215300
     14 N5           6.5320     1.1370    -0.7080 n3         1 Z96      -0.534600
     15 C6           6.0150    -0.0170     0.0390 c3         1 Z96       0.149500
     16 C7           4.5150     0.0000     0.0000 ca         1 Z96      -0.082300
     17 C8           3.8230     0.0110    -1.2080 ca         1 Z96      -0.008800
     18 C9           4.5250     0.0240    -2.4950 ce         1 Z96      -0.071400
     19 C10          7.7050    -3.2590    -0.2720 ca         1 Z96       0.402200
     20 C11          3.9520     0.9080    -3.5730 c3         1 Z96       0.346600
     21 C12          5.6050    -0.6600    -2.7990 cf         1 Z96      -0.060200
     22 C13          2.4310     0.0020     1.1930 ca         1 Z96      -0.100000
     23 C14          1.7350     0.0020    -0.0040 ca         1 Z96      -0.028600
     24 C15          2.4210     0.0140    -1.2000 ca         1 Z96      -0.127000
     25 C17          6.0310     2.3980    -0.1500 c3         1 Z96       0.126800
     26 C18          6.4460     3.5620    -1.0560 c3         1 Z96       0.057500
     27 C19          8.4920     2.2270    -1.6930 c3         1 Z96       0.057500
     28 C20          8.0000     1.1160    -0.7590 c3         1 Z96       0.126800
     29 C21          1.4950     0.8670    -4.2550 cc         1 Z96       0.328200
     30 C22         10.0380     6.5180     0.6290 c3         1 Z96      -0.029100
     31 C24          9.7290     7.1940    -1.7560 c3         1 Z96      -0.029100
     32 C25          8.6750     4.5860    -1.0490 c          1 Z96       0.704100
     33 C26          8.1980     8.0880     0.0030 c3         1 Z96      -0.029100
     34 C27          2.6990     0.2780    -4.1250 cd         1 Z96      -0.461900
     35 C28          1.2860    -1.1510    -4.9910 cd         1 Z96       0.220400
     36 C29          9.0080     6.8710    -0.4460 c3         1 Z96       0.193800
     37 H1           4.3510     0.0000     2.1330 ha         1 Z96       0.113000
     38 HO3          4.8100     1.9110    -5.0170 ho         1 Z96       0.401000
     39 H4           6.6730    -3.0390    -3.4770 ha         1 Z96       0.111000
     40 H5           7.9260    -4.5600    -1.9660 ha         1 Z96       0.115000
     41 H6           6.3430     0.0440     1.0700 h1         1 Z96       0.033700
     42 H10          8.2500    -3.9180     0.3930 h4         1 Z96      -0.017900
     43 H11          3.7140     1.8790    -3.1560 h1         1 Z96       0.022700
     44 H12          5.9960    -0.5350    -3.8010 ha         1 Z96       0.132000
     45 H13          1.8920     0.0200     2.1320 ha         1 Z96       0.116000
     46 H15          1.8750     0.0180    -2.1360 ha         1 Z96       0.149000
     47 H17          6.4490     2.5450     0.8390 h1         1 Z96       0.023950
     48 H17A         4.9500     2.3590    -0.0880 h1         1 Z96       0.023950
     49 H18          6.1830     4.5010    -0.5850 h1         1 Z96       0.036200
     50 H18A         5.9440     3.4750    -2.0130 h1         1 Z96       0.036200
     51 H19          8.1810     2.0110    -2.7080 h1         1 Z96       0.036200
     52 H19A         9.5730     2.2910    -1.6430 h1         1 Z96       0.036200
     53 H20          8.3970     1.2810     0.2360 h1         1 Z96       0.023950
     54 H20A         8.3340     0.1560    -1.1330 h1         1 Z96       0.023950
     55 H21          1.2510     1.8860    -3.9790 h4         1 Z96       0.005100
     56 H22         10.8200     5.9080     0.1930 hc         1 Z96       0.019033
     57 H22A         9.5540     5.9690     1.4270 hc         1 Z96       0.019033
     58 H22B        10.4700     7.4280     1.0280 hc         1 Z96       0.019033
     59 H23          4.4760    -1.6200    -5.1830 h1         1 Z96       0.033367
     60 H23A         3.2490    -2.8940    -5.1710 h1         1 Z96       0.033367
     61 H23B         3.9150    -2.2930    -3.6460 h1         1 Z96       0.033367
     62 H24         10.0230     8.2360    -1.7600 hc         1 Z96       0.019033
     63 H24A         9.0640     7.0040    -2.5900 hc         1 Z96       0.019033
     64 H24B        10.6090     6.5690    -1.8470 hc         1 Z96       0.019033
     65 H26          7.4760     8.3440    -0.7630 hc         1 Z96       0.019033
     66 H26A         7.6790     7.8560     0.9250 hc         1 Z96       0.019033
     67 H26B         8.8650     8.9260     0.1650 hc         1 Z96       0.019033
     68 H28          0.8560    -2.0520    -5.4110 h5         1 Z96       0.025100
     69 C23          3.6200    -2.0180    -4.6520 c3         1 Z96      -0.039400
@<TRIPOS>BOND
     1     1    23 1   
     2     2    16 ar  
     3     2    22 ar  
     4     2    37 1   
     5     3    26 1   
     6     3    27 1   
     7     3    32 1   
     8     4    32 2   
     9     5     8 ar  
    10     5    12 ar  
    11     5    15 1   
    12     6    34 1   
    13     6    35 1   
    14     6    69 1   
    15     7    32 1   
    16     7    36 1   
    17     8    11 ar  
    18     8    21 1   
    19     9    29 1   
    20     9    35 2   
    21    10    20 1   
    22    10    38 1   
    23    11    13 ar  
    24    11    39 1   
    25    12    19 ar  
    26    13    19 ar  
    27    13    40 1   
    28    14    15 1   
    29    14    25 1   
    30    14    28 1   
    31    15    16 1   
    32    15    41 1   
    33    16    17 ar  
    34    17    18 1   
    35    17    24 ar  
    36    18    20 1   
    37    18    21 2   
    38    19    42 1   
    39    20    34 1   
    40    20    43 1   
    41    21    44 1   
    42    22    23 ar  
    43    22    45 1   
    44    23    24 ar  
    45    24    46 1   
    46    25    26 1   
    47    25    47 1   
    48    25    48 1   
    49    26    49 1   
    50    26    50 1   
    51    27    28 1   
    52    27    51 1   
    53    27    52 1   
    54    28    53 1   
    55    28    54 1   
    56    29    34 2   
    57    29    55 1   
    58    30    36 1   
    59    30    56 1   
    60    30    57 1   
    61    30    58 1   
    62    31    36 1   
    63    31    62 1   
    64    31    63 1   
    65    31    64 1   
    66    33    36 1   
    67    33    65 1   
    68    33    66 1   
    69    33    67 1   
    70    35    68 1   
    71    59    69 1   
    72    60    69 1   
    73    61    69 1   
@<TRIPOS>SUBSTRUCTURE
     1 Z96         1 TEMP              0 ****  ****    0 ROOT
