@<TRIPOS>MOLECULE
Z97
   42    43     1     0     0
SMALL
bcc


@<TRIPOS>ATOM
      1 C            0.0000     0.0000     0.0000 c2         1 Z97       0.377000
      2 N            1.9980     1.1980    -0.6940 nz         1 Z97       0.807000
      3 O           -0.6710    -1.1440     0.2030 o          1 Z97      -0.566500
      4 N1          10.4460     0.3770     3.3340 n2         1 Z97      -0.050000
      5 C2           9.7270    -0.6280     2.8760 c2         1 Z97      -0.177000
      6 C3           8.3420    -0.5600     2.8560 c2         1 Z97       0.024000
      7 O3           7.6070    -1.5990     2.3840 oh         1 Z97      -0.224000
      8 C4           7.7130     0.6020     3.3320 c3         1 Z97      -0.221000
      9 C5           8.5220     1.6410     3.8060 c2         1 Z97       0.012000
     10 C6           9.8930     1.4850     3.7890 c2         1 Z97      -0.079000
     11 CA           1.5070     0.0000     0.0000 c3         1 Z97      -0.254000
     12 CB           2.0180     0.0000     1.4420 c3         1 Z97      -0.261000
     13 CD           4.0530    -0.1260     2.8850 c3         1 Z97      -0.028000
     14 NE           5.5130    -0.2470     2.8870 n2         1 Z97      -0.165000
     15 CG           3.5430    -0.1260     1.4440 c3         1 Z97      -0.065000
     16 C4A          6.2420     0.7240     3.3300 c2         1 Z97      -0.307000
     17 C5A          7.9040     2.9120     4.3300 c3         1 Z97       0.162000
     18 OP1          7.9540     6.1900     4.2410 o          1 Z97      -0.705500
     19 OP2         10.0190     5.9360     5.8470 o          1 Z97      -0.705500
     20 OP3          7.7230     5.1340     6.5200 o          1 Z97      -0.705500
     21 OP4          8.9370     3.8050     4.7500 os         1 Z97      -0.646000
     22 OXT         -0.6030     1.0320    -0.1770 o          1 Z97      -0.566500
     23 HN           2.9000     1.0120    -1.0840 hn         1 Z97       0.014333
     24 HNA          1.3620     1.4420    -1.4270 hn         1 Z97       0.014333
     25 HO3          7.7080    -2.3410     2.9570 ho         1 Z97       0.177000
     26 H6          10.5520     2.2650     4.1500 h4         1 Z97       0.175000
     27 HA           1.8680    -0.8850    -0.5100 hx         1 Z97       0.096000
     28 HB           1.4260    -0.3750     2.2680 hc         1 Z97       0.125500
     29 HBA          2.1370    -0.8800     0.8210 hc         1 Z97       0.125500
     30 HD           3.7670     0.8000     3.3690 h1         1 Z97       0.054000
     31 HDA          3.6210    -0.9630     3.4220 h1         1 Z97       0.054000
     32 HG           3.8290    -1.0520     0.9590 hc         1 Z97       0.039000
     33 HGA          3.9750     0.7100     0.9080 hc         1 Z97       0.039000
     34 H2A         11.4900    -1.6990     2.3460 hc         1 Z97       0.035667
     35 H2AA        10.0680    -2.0960     1.3720 hc         1 Z97       0.035667
     36 H2AB        10.2000    -2.6990     3.0290 hc         1 Z97       0.035667
     37 H4A          6.8090     0.1570     4.0600 DU         1 Z97       0.314000
     38 H5A          7.2610     2.6810     5.1710 h1         1 Z97       0.055000
     39 H5AA         7.3190     3.3790     3.5460 h1         1 Z97       0.055000
     40 P            8.6380     5.2630     5.3650 p5         1 Z97       0.931500
     41 HN3          2.0620     1.9570    -0.0450 hn         1 Z97       0.014333
     42 C2A         10.4200    -1.8680     2.3700 c3         1 Z97      -0.045000
@<TRIPOS>BOND
     1     1     3 1   
     2     1    11 1   
     3     1    22 1   
     4     2    11 1   
     5     2    23 1   
     6     2    24 1   
     7     2    41 1   
     8     4     5 1   
     9     4    10 1   
    10     5     6 1   
    11     5    42 1   
    12     6     7 1   
    13     6     8 1   
    14     7    25 1   
    15     8     9 1   
    16     8    16 1   
    17     8    37 1   
    18     9    10 1   
    19     9    17 1   
    20    10    26 1   
    21    11    12 1   
    22    11    27 1   
    23    12    15 1   
    24    12    28 1   
    25    12    29 1   
    26    13    14 1   
    27    13    15 1   
    28    13    30 1   
    29    13    31 1   
    30    14    16 1   
    31    15    32 1   
    32    15    33 1   
    33    16    37 1   
    34    17    21 1   
    35    17    38 1   
    36    17    39 1   
    37    18    40 1   
    38    19    40 1   
    39    20    40 1   
    40    21    40 1   
    41    34    42 1   
    42    35    42 1   
    43    36    42 1   
@<TRIPOS>SUBSTRUCTURE
     1 Z97         1 TEMP              0 ****  ****    0 ROOT
