@<TRIPOS>MOLECULE
molecule
   42    42     1     0     0
SMALL
bcc


@<TRIPOS>ATOM
      1 C            0.0000     0.0000     0.0000 c          1 Z97       0.870600
      2 N            1.9980     1.1980    -0.6940 nz         1 Z97      -0.803600
      3 O           -0.6710    -1.1440     0.2030 o          1 Z97      -0.783800
      4 N1          10.4460     0.3770     3.3340 nb         1 Z97      -0.691000
      5 C2           9.7270    -0.6280     2.8760 ca         1 Z97       0.333600
      6 C3           8.3420    -0.5600     2.8560 ca         1 Z97       0.004800
      7 O3           7.6070    -1.5990     2.3840 oh         1 Z97      -0.503100
      8 C4           7.7130     0.6020     3.3320 ca         1 Z97      -0.176900
      9 C5           8.5220     1.6410     3.8060 ca         1 Z97      -0.122600
     10 C6           9.8930     1.4850     3.7890 ca         1 Z97       0.438200
     11 CA           1.5070     0.0000     0.0000 c3         1 Z97       0.044500
     12 CB           2.0180     0.0000     1.4420 c3         1 Z97      -0.220400
     13 CD           4.0530    -0.1260     2.8850 c3         1 Z97       0.118800
     14 NE           5.5130    -0.2470     2.8870 n2         1 Z97      -0.637900
     15 CG           3.5430    -0.1260     1.4440 c3         1 Z97      -0.058400
     16 C4A          6.2420     0.7240     3.3300 ce         1 Z97       0.510800
     17 C5A          7.9040     2.9120     4.3300 c3         1 Z97       0.244700
     18 OP1          7.9540     6.1900     4.2410 o          1 Z97      -0.898500
     19 OP2         10.0190     5.9360     5.8470 o          1 Z97      -0.898500
     20 OP3          7.7230     5.1340     6.5200 o          1 Z97      -0.898500
     21 OP4          8.9370     3.8050     4.7500 os         1 Z97      -0.571200
     22 OXT         -0.6030     1.0320    -0.1770 o          1 Z97      -0.783800
     23 HN           2.0610     1.9570    -0.0450 hn         1 Z97       0.440133
     24 HNA          1.3640     1.4400    -1.4300 hn         1 Z97       0.440133
     25 HO3          7.6600    -2.3220     2.9880 ho         1 Z97       0.402000
     26 H6          10.5430     2.2710     4.1550 h4         1 Z97       0.086100
     27 HA           1.8680    -0.8850    -0.5100 hx         1 Z97       0.073700
     28 HB           1.4260    -0.3750     2.2680 hc         1 Z97       0.115700
     29 HBA          2.1370    -0.8800     0.8210 hc         1 Z97       0.115700
     30 HD           3.6210    -0.9630     3.4210 h1         1 Z97       0.046200
     31 HDA          3.7670     0.7990     3.3700 h1         1 Z97       0.046200
     32 HG           3.8280    -1.0530     0.9600 hc         1 Z97       0.031700
     33 HGA          3.9750     0.7100     0.9070 hc         1 Z97       0.031700
     34 H2A         10.1960    -2.7000     3.0260 hc         1 Z97       0.035033
     35 H2AA        11.4900    -1.7010     2.3520 hc         1 Z97       0.035033
     36 H2AB        10.0720    -2.0930     1.3690 hc         1 Z97       0.035033
     37 H4A          5.7730     1.6270     3.7010 h4         1 Z97       0.000800
     38 H5A          7.2610     2.6810     5.1710 h1         1 Z97       0.036200
     39 H5AA         7.3190     3.3790     3.5460 h1         1 Z97       0.036200
     40 P            8.6380     5.2630     5.3650 p5         1 Z97       1.160900
     41 HN3          2.9030     1.0140    -1.0780 hn         1 Z97       0.440133
     42 C2A         10.4200    -1.8680     2.3700 c3         1 Z97      -0.128400
@<TRIPOS>BOND
     1     3     1 1
     2     1    11 1
     3     1    22 1
     4    11     2 1
     5     2    23 1
     6     2    24 1
     7    18    40 1
     8    40    19 1
     9    40    20 1
    10    40    21 1
    11     4    10 ar
    12     4     5 ar
    13    42     5 1
    14     5     6 ar
    15     6     8 ar
    16     6     7 1
    17     7    25 1
    18     9     8 ar
    19     8    16 1
    20    10     9 ar
    21    17     9 1
    22    10    26 1
    23    12    11 1
    24    11    27 1
    25    15    12 1
    26    12    28 1
    27    12    29 1
    28    14    13 1
    29    13    15 1
    30    13    30 1
    31    13    31 1
    32    16    14 2
    33    15    32 1
    34    15    33 1
    35    42    34 1
    36    42    35 1
    37    42    36 1
    38    16    37 1
    39    21    17 1
    40    17    38 1
    41    17    39 1
    42    41     2 1
@<TRIPOS>SUBSTRUCTURE
     1 Z97         1 TEMP              0 ****  ****    0 ROOT
