@<TRIPOS>MOLECULE
Z98
   39    39     1     0     0
SMALL
bcc


@<TRIPOS>ATOM
      1 C            0.0000     0.0000     0.0000 c          1 Z98       0.951600
      2 N            1.9970     1.1990    -0.6930 nz         1 Z98       0.028400
      3 OXT         -0.6050     1.0300    -0.1870 o          1 Z98      -0.822300
      4 N1           5.7230    -4.3360     1.0460 nb         1 Z98      -0.580000
      5 C2           6.1270    -3.1460     0.6510 ca         1 Z98       0.278600
      6 C3           5.8080    -2.0090     1.3790 ca         1 Z98      -0.020200
      7 O3           6.2290    -0.7860     0.9670 oh         1 Z98      -0.519100
      8 C4           5.0440    -2.1450     2.5490 ca         1 Z98      -0.268900
      9 C5           4.6390    -3.4310     2.9250 ca         1 Z98      -0.102600
     10 C6           5.0030    -4.5050     2.1390 ca         1 Z98       0.419200
     11 CA           1.5060     0.0000     0.0000 c3         1 Z98      -0.107500
     12 CB           2.0170     0.0000     1.4420 c3         1 Z98      -0.182400
     13 ND           4.0390     0.0180     2.8170 n2         1 Z98      -0.570900
     14 CG           3.5440    -0.0990     1.4440 c3         1 Z98       0.168800
     15 C4A          4.6800    -0.9660     3.3600 ce         1 Z98       0.554800
     16 C5A          3.8180    -3.6390     4.1710 c3         1 Z98       0.310700
     17 OP1          3.4730    -5.3690     6.9370 o          1 Z98      -0.741167
     18 OP2          2.4520    -7.1990     5.3480 o          1 Z98      -0.741167
     19 OP3          1.3670    -4.9350     5.6140 o          1 Z98      -0.741167
     20 OP4          3.5370    -5.0320     4.3300 os         1 Z98      -0.471200
     21 O           -0.6730    -1.1450     0.2020 o          1 Z98      -0.822300
     22 HN           2.9210     1.0300    -1.0380 hn         1 Z98       0.211800
     23 HNA          2.0140     1.9690    -0.0550 hn         1 Z98       0.211800
     24 HO3          7.0870    -0.6130     1.3190 ho         1 Z98       0.393000
     25 H6           4.6930    -5.5030     2.4230 h4         1 Z98       0.048100
     26 HA           1.8670    -0.8850    -0.5110 hx         1 Z98       0.067700
     27 HB           1.4290    -0.3720     2.2720 hc         1 Z98       0.103200
     28 HBA          2.1410    -0.8820     0.8260 hc         1 Z98       0.103200
     29 HG           3.9580     0.7000     0.8410 h1         1 Z98       0.001700
     30 HGA          3.8440    -1.0550     1.0320 h1         1 Z98       0.001700
     31 H2A          7.9250    -2.6230    -0.3620 hc         1 Z98      -0.004300
     32 H2AA         7.0580    -3.9950    -1.0650 hc         1 Z98      -0.004300
     33 H2AB         6.4490    -2.3500    -1.2970 hc         1 Z98      -0.004300
     34 H4A          5.0450    -0.8770     4.3750 h4         1 Z98      -0.004200
     35 H5A          2.8870    -3.0910     4.0870 h1         1 Z98       0.001700
     36 H5AA         4.3700    -3.2820     5.0320 h1         1 Z98       0.001700
     37 P            2.6780    -5.6190     5.5590 p5         1 Z98       0.656900
     38 HN3          1.3940     1.4090    -1.4640 hn         1 Z98       0.211800
     39 C2A          6.9470    -3.0200    -0.6060 c3         1 Z98      -0.018400
@<TRIPOS>BOND
     1     1     3 1   
     2     1    11 1   
     3     1    21 1   
     4     2    11 1   
     5     2    22 1   
     6     2    23 1   
     7     2    38 1   
     8     4     5 ar  
     9     4    10 ar  
    10     5     6 ar  
    11     5    39 1   
    12     6     7 1   
    13     6     8 ar  
    14     7    24 1   
    15     8     9 ar  
    16     8    15 1   
    17     9    10 ar  
    18     9    16 1   
    19    10    25 1   
    20    11    12 1   
    21    11    26 1   
    22    12    14 1   
    23    12    27 1   
    24    12    28 1   
    25    13    14 1   
    26    13    15 2   
    27    14    29 1   
    28    14    30 1   
    29    15    34 1   
    30    16    20 1   
    31    16    35 1   
    32    16    36 1   
    33    17    37 1   
    34    18    37 1   
    35    19    37 1   
    36    20    37 1   
    37    31    39 1   
    38    32    39 1   
    39    33    39 1   
@<TRIPOS>SUBSTRUCTURE
     1 Z98         1 TEMP              0 ****  ****    0 ROOT
