@<TRIPOS>MOLECULE
molecule
   39    39     1     0     0
SMALL
bcc


@<TRIPOS>ATOM
      1 C            0.0000     0.0000     0.0000 c          1 Z98       0.866600
      2 N            1.9970     1.1990    -0.6930 nz         1 Z98      -0.804600
      3 OXT         -0.6050     1.0300    -0.1870 o          1 Z98      -0.775800
      4 N1           5.7230    -4.3360     1.0460 nb         1 Z98      -0.683000
      5 C2           6.1270    -3.1460     0.6510 ca         1 Z98       0.356600
      6 C3           5.8080    -2.0090     1.3790 ca         1 Z98      -0.023200
      7 O3           6.2290    -0.7860     0.9670 oh         1 Z98      -0.541100
      8 C4           5.0440    -2.1450     2.5490 ca         1 Z98      -0.333900
      9 C5           4.6390    -3.4310     2.9250 ca         1 Z98      -0.138600
     10 C6           5.0030    -4.5050     2.1390 ca         1 Z98       0.455200
     11 CA           1.5060     0.0000     0.0000 c3         1 Z98       0.042500
     12 CB           2.0170     0.0000     1.4420 c3         1 Z98      -0.195400
     13 ND           4.0390     0.0180     2.8170 n2         1 Z98      -0.502900
     14 CG           3.5440    -0.0990     1.4440 c3         1 Z98       0.052800
     15 C4A          4.6800    -0.9660     3.3600 ce         1 Z98       0.265800
     16 C5A          3.8180    -3.6390     4.1710 c3         1 Z98       0.229700
     17 OP1          3.4730    -5.3690     6.9370 o          1 Z98      -0.887500
     18 OP2          2.4520    -7.1990     5.3480 o          1 Z98      -0.887500
     19 OP3          1.3670    -4.9350     5.6140 o          1 Z98      -0.887500
     20 OP4          3.5370    -5.0320     4.3300 os         1 Z98      -0.565200
     21 O           -0.6730    -1.1450     0.2020 o          1 Z98      -0.775800
     22 HN           1.3840     1.4190    -1.4530 hn         1 Z98       0.432800
     23 HNA          2.9170     1.0270    -1.0460 hn         1 Z98       0.432800
     24 HO3          7.0770    -0.6040     1.3380 ho         1 Z98       0.419000
     25 H6           4.6930    -5.5030     2.4230 h4         1 Z98       0.097100
     26 HA           1.8670    -0.8850    -0.5110 hx         1 Z98       0.082700
     27 HB           1.4290    -0.3720     2.2720 hc         1 Z98       0.126200
     28 HBA          2.1410    -0.8820     0.8260 hc         1 Z98       0.126200
     29 HG           3.8440    -1.0550     1.0320 h1         1 Z98       0.028700
     30 HGA          3.9580     0.7000     0.8410 h1         1 Z98       0.028700
     31 H2A          7.9250    -2.6230    -0.3620 hc         1 Z98       0.037033
     32 H2AA         7.0580    -3.9950    -1.0650 hc         1 Z98       0.037033
     33 H2AB         6.4490    -2.3510    -1.2970 hc         1 Z98       0.037033
     34 H4A          3.9760    -1.7710     3.1900 h4         1 Z98       0.279800
     35 H5A          2.8870    -3.0910     4.0870 h1         1 Z98       0.055700
     36 H5AA         4.3700    -3.2820     5.0320 h1         1 Z98       0.055700
     37 P            2.6780    -5.6190     5.5590 p5         1 Z98       1.147900
     38 HN3          2.0140     1.9690    -0.0540 hn         1 Z98       0.432800
     39 C2A          6.9470    -3.0200    -0.6060 c3         1 Z98      -0.127400
@<TRIPOS>BOND
     1    21     1 1
     2    11     1 1
     3     1     3 1
     4    11     2 1
     5     2    22 1
     6     2    23 1
     7    18    37 1
     8    19    37 1
     9    37    17 1
    10    37    20 1
    11    10     4 ar
    12     4     5 ar
    13     5    39 1
    14     5     6 ar
    15     6     8 ar
    16     6     7 1
    17     7    24 1
    18     9     8 ar
    19     8    15 1
    20    10     9 ar
    21    16     9 1
    22    10    25 1
    23    12    11 1
    24    11    26 1
    25    14    12 1
    26    12    27 1
    27    12    28 1
    28    15    13 2
    29    13    14 1
    30    14    29 1
    31    14    30 1
    32    39    31 1
    33    39    32 1
    34    39    33 1
    35    15    34 1
    36    20    16 1
    37    16    35 1
    38    16    36 1
    39    38     2 1
@<TRIPOS>SUBSTRUCTURE
     1 Z98         1 TEMP              0 ****  ****    0 ROOT
