@<TRIPOS>MOLECULE
Z99
   44    47     1     0     0
SMALL
bcc


@<TRIPOS>ATOM
      1 NAA          1.4690     0.0000     0.0000 nz         1 Z99       0.003400
      2 OAB         -2.1860     2.4220    -2.6830 o          1 Z99      -0.876800
      3 OAC          0.1960    -1.7450    -1.7360 o          1 Z99      -0.827300
      4 OAD         -0.8070     2.2630    -4.4020 o          1 Z99      -0.876800
      5 OAE         -1.5330    -1.7520    -0.3590 o          1 Z99      -0.827300
      6 CAF         -0.4540    -4.9710     1.0160 ca         1 Z99      -0.070500
      7 CAG         -0.5910    -0.4080     6.4240 ca         1 Z99      -0.070500
      8 CAH          0.3630    -4.1480     0.2620 ca         1 Z99      -0.103500
      9 CAI          0.2070     0.5110     5.7470 ca         1 Z99      -0.103500
     10 CAJ         -1.0180    -4.5000     2.1840 ca         1 Z99      -0.132000
     11 CAK         -1.1090    -1.4950     5.7470 ca         1 Z99      -0.132000
     12 CAL          0.6130    -2.8540     0.6790 ca         1 Z99      -0.064000
     13 CAM          0.5040     0.3180     4.4120 ca         1 Z99      -0.064000
     14 CAN         -0.5110     0.0000     1.4420 c3         1 Z99      -0.033400
     15 CAO          0.5200     2.3150    -1.1010 cx         1 Z99      -0.211400
     16 OAP         -1.3300    -2.7590     3.7570 os         1 Z99      -0.199200
     17 CAR         -0.5030    -1.2300    -0.7120 c          1 Z99       0.976600
     18 CAS         -0.7640    -3.2010     2.6080 ca         1 Z99       0.156100
     19 CAT         -0.8100    -1.6870     4.4030 ca         1 Z99       0.156100
     20 CAU          0.0490    -2.3760     1.8490 ca         1 Z99      -0.161800
     21 CAV         -0.0020    -0.7780     3.7360 ca         1 Z99      -0.161800
     22 CAW          0.3320    -0.9640     2.2820 c3         1 Z99       0.083900
     23 CAX         -0.1060     1.4350    -2.1850 cx         1 Z99      -0.065700
     24 CAY          0.0000     0.0000     0.0000 c3         1 Z99      -0.157800
     25 CAZ         -0.5100     1.2500    -0.7200 cx         1 Z99      -0.093700
     26 HNAA         1.8020     0.0480    -0.9420 hn         1 Z99       0.230133
     27 HNAB         1.8020    -0.8400     0.4300 hn         1 Z99       0.230133
     28 HAF         -0.6500    -5.9850     0.6890 ha         1 Z99       0.097500
     29 HAG         -0.8240    -0.2590     7.4710 ha         1 Z99       0.097500
     30 HAH          0.8060    -4.5170    -0.6550 ha         1 Z99       0.108500
     31 HAI          0.6160     1.3650     6.2740 ha         1 Z99       0.108500
     32 HAJ         -1.6580    -5.1460     2.7740 ha         1 Z99       0.109500
     33 HAK         -1.7290    -2.2110     6.2700 ha         1 Z99       0.109500
     34 HAL          1.2530    -2.2110     0.0870 ha         1 Z99       0.105500
     35 HAM          1.1250     1.0340     3.8880 ha         1 Z99       0.105500
     36 HAN         -1.5460    -0.3170     1.4590 hc         1 Z99       0.058200
     37 HANA        -0.4330     0.9990     1.8530 hc         1 Z99       0.058200
     38 HAO          0.1670     3.3390    -1.0690 hc         1 Z99       0.027700
     39 HAOA         1.5470     2.0840    -0.8470 hc         1 Z99       0.027700
     40 HAW          1.3830    -0.7500     2.1300 hc         1 Z99      -0.012300
     41 HAX          0.9170     1.1220    -2.3530 hc         1 Z99       0.026700
     42 HAZ         -1.4900     1.6370    -0.4680 hc         1 Z99       0.119700
     43 CAQ         -1.1100     2.0770    -3.1080 c          1 Z99       1.020600
     44 HAA3         1.8020     0.7810     0.5290 hn         1 Z99       0.230133
@<TRIPOS>BOND
     1     1    24 1   
     2     1    26 1   
     3     1    27 1   
     4     1    44 1   
     5     2    43 1   
     6     3    17 1   
     7     4    43 1   
     8     5    17 1   
     9     6     8 ar  
    10     6    10 ar  
    11     6    28 1   
    12     7     9 ar  
    13     7    11 ar  
    14     7    29 1   
    15     8    12 ar  
    16     8    30 1   
    17     9    13 ar  
    18     9    31 1   
    19    10    18 ar  
    20    10    32 1   
    21    11    19 ar  
    22    11    33 1   
    23    12    20 ar  
    24    12    34 1   
    25    13    21 ar  
    26    13    35 1   
    27    14    22 1   
    28    14    24 1   
    29    14    36 1   
    30    14    37 1   
    31    15    23 1   
    32    15    25 1   
    33    15    38 1   
    34    15    39 1   
    35    16    18 1   
    36    16    19 1   
    37    17    24 1   
    38    18    20 ar  
    39    19    21 ar  
    40    20    22 1   
    41    21    22 1   
    42    22    40 1   
    43    23    25 1   
    44    23    41 1   
    45    23    43 1   
    46    24    25 1   
    47    25    42 1   
@<TRIPOS>SUBSTRUCTURE
     1 Z99         1 TEMP              0 ****  ****    0 ROOT
