@<TRIPOS>MOLECULE
molecule
  100   103     1     0     0
SMALL
bcc


@<TRIPOS>ATOM
      1 O30          0.0000     0.0000     0.0000 o          1 Z9Z      -0.599000
      2 C29          1.2150     0.0000     0.0000 c          1 Z9Z       0.745100
      3 O31          1.8880     0.0000     1.1670 os         1 Z9Z      -0.442900
      4 C32          1.0980     0.0010     2.3840 c3         1 Z9Z       0.219700
      5 C33          2.0160     0.0000     3.5790 ca         1 Z9Z      -0.226600
      6 C38          2.4420     1.1930     4.1340 ca         1 Z9Z       0.443200
      7 N37          3.2460     1.2000     5.1800 nb         1 Z9Z      -0.692000
      8 C36          3.6720     0.0830     5.7340 ca         1 Z9Z       0.429200
      9 C35          3.2880    -1.1470     5.2340 ca         1 Z9Z      -0.259300
     10 C34          2.4390    -1.1950     4.1390 ca         1 Z9Z      -0.069000
     11 N28          1.8890    -0.0050    -1.1670 ns         1 Z9Z      -0.571900
     12 C20          1.1560    -0.0120    -2.4360 c3         1 Z9Z       0.136700
     13 C21          0.7920     1.4230    -2.8210 c3         1 Z9Z      -0.053100
     14 C22         -0.1700     1.9870    -1.8080 ca         1 Z9Z      -0.068300
     15 C27          0.3100     2.6530    -0.6960 ca         1 Z9Z      -0.116000
     16 C26         -0.5730     3.1700     0.2340 ca         1 Z9Z      -0.121000
     17 C25         -1.9360     3.0200     0.0510 ca         1 Z9Z      -0.125000
     18 C24         -2.4150     2.3540    -1.0610 ca         1 Z9Z      -0.121000
     19 C23         -1.5320     1.8430    -1.9940 ca         1 Z9Z      -0.116000
     20 C19          2.0340    -0.6270    -3.5280 c3         1 Z9Z      -0.096400
     21 C18          2.2950    -2.0990    -3.2040 c3         1 Z9Z      -0.096400
     22 C17          3.1720    -2.7140    -4.2970 c3         1 Z9Z       0.117700
     23 C39          3.5360    -4.1500    -3.9110 c3         1 Z9Z      -0.051100
     24 C40          4.4990    -4.7130    -4.9240 ca         1 Z9Z      -0.070300
     25 C45          5.8610    -4.5640    -4.7410 ca         1 Z9Z      -0.118500
     26 C44          6.7440    -5.0810    -5.6710 ca         1 Z9Z      -0.118000
     27 C43          6.2640    -5.7460    -6.7830 ca         1 Z9Z      -0.127000
     28 C42          4.9020    -5.8960    -6.9660 ca         1 Z9Z      -0.118000
     29 C41          4.0190    -5.3840    -6.0340 ca         1 Z9Z      -0.118500
     30 N16          2.4390    -2.7200    -5.5650 ns         1 Z9Z      -0.582900
     31 C14          3.1140    -2.7260    -6.7330 c          1 Z9Z       0.651100
     32 O15          4.3260    -2.7250    -6.7320 o          1 Z9Z      -0.598100
     33 C13          2.3600    -2.7320    -8.0370 c3         1 Z9Z       0.065700
     34 C46          1.4800    -1.4840    -8.1240 c3         1 Z9Z      -0.089700
     35 C48          2.3660    -0.2380    -8.1750 c3         1 Z9Z      -0.088100
     36 C47          0.6220    -1.5510    -9.3900 c3         1 Z9Z      -0.088100
     37 N12          3.3120    -2.7380    -9.1510 ns         1 Z9Z      -0.579900
     38 C10          2.9460    -3.2370   -10.3480 c          1 Z9Z       0.791100
     39 O11          1.8250    -3.6830   -10.5040 o          1 Z9Z      -0.680100
     40 N08          3.8220    -3.2420   -11.3720 n          1 Z9Z      -0.501800
     41 C09          5.1710    -2.7050   -11.1850 c3         1 Z9Z       0.090300
     42 C07          3.4230    -3.7840   -12.6740 c3         1 Z9Z       0.108700
     43 C06          3.7440    -5.2560   -12.7230 cc         1 Z9Z       0.336600
     44 N05          4.9340    -5.7160   -13.0550 nc         1 Z9Z      -0.686000
     45 C49          2.8460    -6.2020   -12.4300 cd         1 Z9Z      -0.153400
     46 S50          3.6300    -7.7690   -12.6120 ss         1 Z9Z      -0.221300
     47 C04          5.0880    -6.9970   -13.0620 cd         1 Z9Z       0.452700
     48 C02          6.3680    -7.7100   -13.4120 c3         1 Z9Z      -0.097000
     49 C03          6.8290    -8.5500   -12.2190 c3         1 Z9Z      -0.090100
     50 C01          6.1310    -8.6220   -14.6170 c3         1 Z9Z      -0.090100
     51 H1           0.4740     0.8860     2.4090 h1         1 Z9Z       0.059200
     52 H2           0.4730    -0.8830     2.4090 h1         1 Z9Z       0.059200
     53 H3           2.1120     2.1310     3.7050 h4         1 Z9Z       0.027100
     54 H4           4.3340     0.1300     6.5910 h4         1 Z9Z       0.025100
     55 H5           3.6400    -2.0610     5.6960 ha         1 Z9Z       0.141000
     56 H6           2.1210    -2.1440     3.7260 ha         1 Z9Z       0.142000
     57 H7           2.8900     0.0140    -1.1670 hn         1 Z9Z       0.322500
     58 H8           0.2510    -0.5970    -2.3270 h1         1 Z9Z       0.085700
     59 H9           1.6900     2.0300    -2.8440 hc         1 Z9Z       0.053200
     60 H10          0.3290     1.4280    -3.8010 hc         1 Z9Z       0.053200
     61 H11          1.3770     2.7700    -0.5530 ha         1 Z9Z       0.123500
     62 H12         -0.1970     3.6920     1.1050 ha         1 Z9Z       0.124500
     63 H13         -2.6280     3.4230     0.7810 ha         1 Z9Z       0.125000
     64 H14         -3.4820     2.2380    -1.2060 ha         1 Z9Z       0.124500
     65 H15         -1.9070     1.3210    -2.8650 ha         1 Z9Z       0.123500
     66 H16          1.5280    -0.5510    -4.4830 hc         1 Z9Z       0.056200
     67 H17          2.9760    -0.0950    -3.5760 hc         1 Z9Z       0.056200
     68 H18          2.8010    -2.1750    -2.2500 hc         1 Z9Z       0.055200
     69 H19          1.3520    -2.6310    -3.1570 hc         1 Z9Z       0.055200
     70 H20          4.0770    -2.1290    -4.4050 h1         1 Z9Z       0.083700
     71 H21          2.6390    -4.7560    -3.8890 hc         1 Z9Z       0.052200
     72 H22          3.9990    -4.1540    -2.9320 hc         1 Z9Z       0.052200
     73 H23          6.2370    -4.0420    -3.8690 ha         1 Z9Z       0.122500
     74 H24          7.8110    -4.9640    -5.5280 ha         1 Z9Z       0.127000
     75 H25          6.9560    -6.1490    -7.5130 ha         1 Z9Z       0.125000
     76 H26          4.5260    -6.4200    -7.8370 ha         1 Z9Z       0.127000
     77 H27          2.9520    -5.5010    -6.1770 ha         1 Z9Z       0.122500
     78 H28          1.4390    -2.7610    -5.5640 hn         1 Z9Z       0.315500
     79 H29          1.7370    -3.6170    -8.0900 h1         1 Z9Z       0.093700
     80 H30          0.8370    -1.4340    -7.2540 hc         1 Z9Z       0.043700
     81 H31          2.7230    -0.0890    -9.1870 hc         1 Z9Z       0.041367
     82 H32          3.2120    -0.3690    -7.5100 hc         1 Z9Z       0.041367
     83 H33          1.7930     0.6260    -7.8630 hc         1 Z9Z       0.041367
     84 H34          1.2380    -1.3380   -10.2550 hc         1 Z9Z       0.041367
     85 H35          0.1960    -2.5430    -9.4850 hc         1 Z9Z       0.041367
     86 H36         -0.1750    -0.8210    -9.3250 hc         1 Z9Z       0.041367
     87 H37          4.2300    -2.3590    -9.0260 hn         1 Z9Z       0.335500
     88 H38          5.6870    -3.2800   -10.4250 h1         1 Z9Z       0.042700
     89 H39          5.1080    -1.6700   -10.8730 h1         1 Z9Z       0.042700
     90 H40          5.7180    -2.7680   -12.1180 h1         1 Z9Z       0.042700
     91 H41          2.3590    -3.6410   -12.8140 h1         1 Z9Z       0.072200
     92 H42          3.9630    -3.2700   -13.4600 h1         1 Z9Z       0.072200
     93 H43          1.8170    -6.0350   -12.1340 h4         1 Z9Z       0.196000
     94 H44          7.1320    -6.9810   -13.6560 hc         1 Z9Z       0.079700
     95 H45          6.0480    -9.2520   -11.9490 hc         1 Z9Z       0.041533
     96 H46          7.0360    -7.9000   -11.3780 hc         1 Z9Z       0.041533
     97 H47          7.7270    -9.0940   -12.4860 hc         1 Z9Z       0.041533
     98 H48          7.0680    -9.0730   -14.9190 hc         1 Z9Z       0.041533
     99 H49          5.7290    -8.0400   -15.4380 hc         1 Z9Z       0.041533
    100 H50          5.4260    -9.4000   -14.3480 hc         1 Z9Z       0.041533
@<TRIPOS>BOND
     1    44    43 1
     2    44    47 2
     3    42    43 1
     4    42    40 1
     5    49    48 1
     6    48    47 1
     7    48    50 1
     8    43    45 2
     9    47    46 1
    10    45    46 1
    11    40    41 1
    12    40    38 1
    13    39    38 2
    14    38    37 1
    15    37    33 1
    16    28    27 ar
    17    28    29 ar
    18     9     8 ar
    19     9    10 ar
    20     8     7 ar
    21    27    26 ar
    22    33    31 1
    23    33    34 1
    24    29    24 ar
    25    35    34 1
    26    10     5 ar
    27    31    32 2
    28    31    30 1
    29     7     6 ar
    30    26    25 ar
    31    30    22 1
    32    34    36 1
    33    24    25 ar
    34    24    23 1
    35     5     6 ar
    36     5     4 1
    37    22    23 1
    38    22    21 1
    39     3     4 1
    40     3     2 1
    41    21    20 1
    42    11     2 1
    43    11    12 1
    44     2     1 2
    45    12    20 1
    46    12    13 1
    47    18    19 ar
    48    18    17 ar
    49    19    14 ar
    50    17    16 ar
    51    14    13 1
    52    14    15 ar
    53    16    15 ar
    54     4    51 1
    55     4    52 1
    56     6    53 1
    57     8    54 1
    58     9    55 1
    59    10    56 1
    60    11    57 1
    61    12    58 1
    62    13    59 1
    63    13    60 1
    64    15    61 1
    65    16    62 1
    66    17    63 1
    67    18    64 1
    68    19    65 1
    69    20    66 1
    70    20    67 1
    71    21    68 1
    72    21    69 1
    73    22    70 1
    74    23    71 1
    75    23    72 1
    76    25    73 1
    77    26    74 1
    78    27    75 1
    79    28    76 1
    80    29    77 1
    81    30    78 1
    82    33    79 1
    83    34    80 1
    84    35    81 1
    85    35    82 1
    86    35    83 1
    87    36    84 1
    88    36    85 1
    89    36    86 1
    90    37    87 1
    91    41    88 1
    92    41    89 1
    93    41    90 1
    94    42    91 1
    95    42    92 1
    96    45    93 1
    97    48    94 1
    98    49    95 1
    99    49    96 1
   100    49    97 1
   101    50    98 1
   102    50    99 1
   103    50   100 1
@<TRIPOS>SUBSTRUCTURE
     1 Z9Z         1 TEMP              0 ****  ****    0 ROOT
