@<TRIPOS>MOLECULE
ZAA
   62    63     1     0     0
SMALL
bcc


@<TRIPOS>ATOM
      1 C13         0.4200    0.3730   -1.6100 c3        1 ZAA     -0.090000
      2 C18        -2.0090    5.0780    0.8380 c2        1 ZAA     -0.124000
      3 C17        -1.2860    3.7840    0.6860 c3        1 ZAA     -0.084000
      4 C16        -1.8110    3.0440   -0.5020 c2        1 ZAA     -0.299000
      5 C19        -3.0080    5.3630    0.0460 c1        1 ZAA     -0.250000
      6 C20        -4.0000    5.6960   -0.7450 c2        1 ZAA      0.057000
      7 C21        -2.8130    3.4940   -1.2820 c1        1 ZAA      0.188000
      8 C22        -5.4350    5.5080   -0.3940 c3        1 ZAA     -0.080000
      9 C23        -6.1980    4.8490   -1.4770 c2        1 ZAA     -0.097000
     10 C24        -7.0830    5.5450   -2.4660 c2        1 ZAA     -0.040000
     11 C11         8.1250   -1.2540   -2.6370 c1        1 ZAA     -0.225000
     12 C12         5.0440   -1.4770    1.9620 c1        1 ZAA     -0.144000
     13 C34        -7.3420    6.9930   -2.5190 c3        1 ZAA     -0.197000
     14 C33        -8.2470    2.0000   -4.4680 c2        1 ZAA     -0.254000
     15 C2          0.5740   -0.6680    0.7420 c2        1 ZAA     -0.026000
     16 C3          1.1370   -0.1800   -0.4400 c2        1 ZAA     -0.127000
     17 N4          2.5370   -0.2990   -0.3640 n2        1 ZAA     -0.111000
     18 C5          2.7950   -0.8430    0.8310 c2        1 ZAA      0.091000
     19 O6          1.6140   -1.0980    1.5690 os        1 ZAA     -0.113000
     20 C7          4.0050   -1.1870    1.4440 c1        1 ZAA     -0.096000
     21 C8          5.4800    1.0910   -2.4940 c2        1 ZAA     -0.172000
     22 C9          6.7340    0.9270   -2.9240 c2        1 ZAA     -0.090000
     23 C10         7.4770   -0.2550   -2.7640 c1        1 ZAA     -0.120000
     24 C14        -0.0120    1.8180   -1.4030 c3        1 ZAA     -0.025000
     25 O15        -1.2700    1.7740   -0.7110 os        1 ZAA     -0.221000
     26 N25        -7.6010    4.5950   -3.2670 n2        1 ZAA     -0.057000
     27 N26        -7.0880    3.4010   -2.8140 na        1 ZAA     -0.140000
     28 N27        -6.2400    3.5330   -1.7450 n2        1 ZAA     -0.061000
     29 C28        -7.3290    2.1620   -3.4440 c2        1 ZAA      0.180000
     30 C29        -6.5450    0.9850   -2.9340 c3        1 ZAA     -0.150000
     31 C30        -6.8420   -0.2910   -3.6180 c2        1 ZAA     -0.126000
     32 C31        -7.7520   -0.3830   -4.6100 c2        1 ZAA     -0.184000
     33 C32        -8.5120    0.7500   -5.0560 c1        1 ZAA     -0.119000
     34 C35        -6.0590    7.8170   -2.8180 c2        1 ZAA      0.341000
     35 O36        -5.2470    7.9920   -1.8630 o         1 ZAA     -0.561000
     36 O37        -5.9250    8.2910   -3.9730 o         1 ZAA     -0.561000
     37 H13        -0.4900   -0.2580   -1.8030 hc        1 ZAA      0.109500
     38 H13A        1.0730    0.3300   -2.5230 hc        1 ZAA      0.109500
     39 H18        -0.1860    3.9730    0.5610 hc        1 ZAA      0.090000
     40 H17        -1.6510    5.7620    1.6210 ha        1 ZAA      0.135000
     41 H19        -1.4160    3.1580    1.6100 hc        1 ZAA      0.090000
     42 H21        -3.8270    6.2390   -1.7020 ha        1 ZAA      0.211000
     43 H22        -5.5550    4.9400    0.5670 hc        1 ZAA      0.132500
     44 H22A       -5.8520    6.5560   -0.2660 hc        1 ZAA      0.132500
     45 H11         5.9670   -1.7310    2.4180 ha        1 ZAA      0.230000
     46 H12         8.6970   -2.1390   -2.5270 ha        1 ZAA      0.218000
     47 H34        -7.7330    7.3190   -1.5200 hc        1 ZAA      0.098500
     48 H34A       -8.1040    7.2360   -3.3040 hc        1 ZAA      0.098500
     49 H33        -8.8180    2.8600   -4.8570 ha        1 ZAA      0.166000
     50 H1         -1.4200    0.0260    0.8170 hc        1 ZAA      0.111000
     51 H1A        -1.2230   -1.7830    0.9380 hc        1 ZAA      0.111000
     52 H1B        -0.8100   -0.7350    2.3640 hc        1 ZAA      0.111000
     53 H8          4.9130    0.3080   -1.9700 ha        1 ZAA      0.129000
     54 H9          4.9410    2.0360   -2.6440 ha        1 ZAA      0.129000
     55 H10         7.2700    1.7420   -3.4470 ha        1 ZAA      0.131000
     56 H14         0.7340    2.3910   -0.7950 h1        1 ZAA      0.083000
     57 H14A       -0.1540    2.3260   -2.3930 h1        1 ZAA      0.083000
     58 H29        -5.4420    1.2050   -3.0460 hc        1 ZAA      0.148500
     59 H30        -6.7350    0.8530   -1.8290 hc        1 ZAA      0.148500
     60 H31        -6.2680   -1.1580   -3.2550 ha        1 ZAA      0.117000
     61 H32        -7.9520   -1.3430   -5.1110 ha        1 ZAA      0.130000
     62 C1         -0.7910   -0.7970    1.2480 c3        1 ZAA     -0.166000
@<TRIPOS>BOND
     1    1   16 1   
     2    1   24 1   
     3    1   37 1   
     4    1   38 1   
     5    2    3 1   
     6    2    5 1   
     7    2   40 1   
     8    3    4 1   
     9    3   39 1   
    10    3   41 1   
    11    4    7 1   
    12    4   25 1   
    13    5    6 1   
    14    6    8 1   
    15    6   42 1   
    16    8    9 1   
    17    8   43 1   
    18    8   44 1   
    19    9   10 1   
    20    9   28 1   
    21   10   13 1   
    22   10   26 1   
    23   11   23 1   
    24   11   46 1   
    25   12   20 1   
    26   12   45 1   
    27   13   34 1   
    28   13   47 1   
    29   13   48 1   
    30   14   29 1   
    31   14   33 1   
    32   14   49 1   
    33   15   16 1   
    34   15   19 1   
    35   15   62 1   
    36   16   17 1   
    37   17   18 1   
    38   18   19 1   
    39   18   20 1   
    40   21   22 1   
    41   21   53 1   
    42   21   54 1   
    43   22   23 1   
    44   22   55 1   
    45   24   25 1   
    46   24   56 1   
    47   24   57 1   
    48   26   27 1   
    49   27   28 1   
    50   27   29 1   
    51   29   30 1   
    52   30   31 1   
    53   30   58 1   
    54   30   59 1   
    55   31   32 1   
    56   31   60 1   
    57   32   33 1   
    58   32   61 1   
    59   34   35 1   
    60   34   36 1   
    61   50   62 1   
    62   51   62 1   
    63   52   62 1   
@<TRIPOS>SUBSTRUCTURE
     1 ZAA         1 TEMP              0 ****  ****    0 ROOT
