@<TRIPOS>MOLECULE
molecule
   58    59     1     0     0
SMALL
bcc


@<TRIPOS>ATOM
      1 C1           0.0000     0.0000     0.0000 c          1 ZAF       0.899600
      2 O1A         -0.6040     0.0010     1.0460 o          1 ZAF      -0.863800
      3 O1B         -0.6720     0.0020    -1.1620 o          1 ZAF      -0.863800
      4 C2A          2.0160    -1.2490    -0.7230 c3         1 ZAF      -0.034100
      5 C2           1.5060     0.0000     0.0000 c3         1 ZAF       0.078100
      6 CP1          3.5230    -1.2490    -0.7240 ca         1 ZAF      -0.019300
      7 CP2          4.2140    -1.8490     0.3130 ca         1 ZAF      -0.086500
      8 CP3          5.5960    -1.8490     0.3120 ca         1 ZAF      -0.133500
      9 CP4          6.2870    -1.2510    -0.7260 ca         1 ZAF      -0.144000
     10 CP5          5.5960    -0.6530    -1.7610 ca         1 ZAF      -0.133500
     11 CP6          4.2140    -0.6560    -1.7630 ca         1 ZAF      -0.086500
     12 O3           1.9840     0.0000     1.3450 os         1 ZAF      -0.544200
     13 P3           2.8660     1.3330     1.5280 p5         1 ZAF       1.131600
     14 O3A          2.0230     2.5210     1.2700 o          1 ZAF      -0.808500
     15 O3B          4.0940     1.3110     0.4870 o          1 ZAF      -0.808500
     16 C4           3.5140     1.4070     3.2300 c3         1 ZAF      -0.049500
     17 C4A          2.3470     1.4280     4.2200 c3         1 ZAF      -0.092100
     18 N5           4.3170     2.6210     3.3950 ns         1 ZAF      -0.522900
     19 C6           5.6380     2.5950     3.1330 c          1 ZAF       0.642100
     20 O6           6.1630     1.5670     2.7610 o          1 ZAF      -0.595100
     21 C7           6.4640     3.8430     3.3040 c3         1 ZAF       0.052700
     22 C7A          5.9270     4.9400     2.3830 c3         1 ZAF      -0.112100
     23 N8           7.8590     3.5570     2.9600 ns         1 ZAF      -0.532900
     24 C9           8.8550     4.2380     3.5610 c          1 ZAF       0.748100
     25 O9           8.5960     5.0880     4.3900 o          1 ZAF      -0.647000
     26 O10         10.1370     3.9740     3.2450 os         1 ZAF      -0.447900
     27 C11         11.2100     4.7070     3.8930 c3         1 ZAF       0.224700
     28 C1X         12.5370     4.2260     3.3660 ca         1 ZAF      -0.071300
     29 C2X         13.1020     4.8330     2.2600 ca         1 ZAF      -0.099000
     30 C3X         14.3190     4.3920     1.7750 ca         1 ZAF      -0.145500
     31 C4X         14.9720     3.3440     2.3980 ca         1 ZAF      -0.128000
     32 C5X         14.4070     2.7390     3.5050 ca         1 ZAF      -0.145500
     33 C6X         13.1920     3.1830     3.9910 ca         1 ZAF      -0.099000
     34 H2A1         1.6540    -1.2470    -1.7440 hc         1 ZAF       0.042700
     35 H2A2         1.6550    -2.1340    -0.2140 hc         1 ZAF       0.042700
     36 H2           1.8670     0.8850    -0.5110 h1         1 ZAF       0.076700
     37 HP2          3.6740    -2.3780     1.0890 ha         1 ZAF       0.110000
     38 HP3          6.1380    -2.3610     1.0980 ha         1 ZAF       0.090500
     39 HP4          7.3690    -1.2970    -0.7530 ha         1 ZAF       0.084000
     40 HP5          6.1380    -0.2160    -2.5920 ha         1 ZAF       0.090500
     41 HP6          3.9340    -0.4660    -2.7920 ha         1 ZAF       0.110000
     42 H4           4.1320     0.5370     3.4190 h1         1 ZAF       0.070700
     43 H4A1         1.8270     0.4790     4.1850 hc         1 ZAF       0.033033
     44 H4A2         2.7260     1.5960     5.2210 hc         1 ZAF       0.033033
     45 H4A3         1.6630     2.2250     3.9540 hc         1 ZAF       0.033033
     46 HN5          3.8930     3.4560     3.7470 hn         1 ZAF       0.303500
     47 H7           6.4070     4.1750     4.3340 h1         1 ZAF       0.071700
     48 H7A1         5.6140     5.7900     2.9780 hc         1 ZAF       0.052700
     49 H7A2         6.7050     5.2480     1.6960 hc         1 ZAF       0.052700
     50 H7A3         5.0800     4.5590     1.8240 hc         1 ZAF       0.052700
     51 HN8          8.0740     2.8360     2.3000 hn         1 ZAF       0.354500
     52 H111        11.1010     5.7650     3.6860 h1         1 ZAF       0.046700
     53 H112        11.1650     4.5420     4.9620 h1         1 ZAF       0.046700
     54 HP2'        12.6070     5.6770     1.7940 ha         1 ZAF       0.136500
     55 HP3'        14.7760     4.8880     0.9280 ha         1 ZAF       0.123500
     56 HP4'        15.9420     3.0210     2.0390 ha         1 ZAF       0.118000
     57 HP5'        14.9270     1.9300     4.0040 ha         1 ZAF       0.123500
     58 HP6'        13.0860     2.7200     4.9650 ha         1 ZAF       0.136500
@<TRIPOS>BOND
     1     1     2 1
     2     1     3 1
     3     1     5 1
     4     4     5 1
     5     4     6 1
     6     4    34 1
     7     4    35 1
     8     5    12 1
     9     5    36 1
    10     6     7 ar
    11     6    11 ar
    12     7     8 ar
    13     7    37 1
    14     8     9 ar
    15     8    38 1
    16     9    10 ar
    17     9    39 1
    18    10    11 ar
    19    10    40 1
    20    11    41 1
    21    12    13 1
    22    13    14 1
    23    13    15 1
    24    13    16 1
    25    16    17 1
    26    16    18 1
    27    16    42 1
    28    17    43 1
    29    17    44 1
    30    17    45 1
    31    18    19 1
    32    18    46 1
    33    19    20 2
    34    19    21 1
    35    21    22 1
    36    21    23 1
    37    21    47 1
    38    22    48 1
    39    22    49 1
    40    22    50 1
    41    23    24 1
    42    23    51 1
    43    24    25 2
    44    24    26 1
    45    26    27 1
    46    27    28 1
    47    27    52 1
    48    27    53 1
    49    28    29 ar
    50    28    33 ar
    51    29    30 ar
    52    29    54 1
    53    30    31 ar
    54    30    55 1
    55    31    32 ar
    56    31    56 1
    57    32    33 ar
    58    32    57 1
    59    33    58 1
@<TRIPOS>SUBSTRUCTURE
     1 ZAF         1 TEMP              0 ****  ****    0 ROOT
