@<TRIPOS>MOLECULE
ZAH
   42    43     1     0     0
SMALL
bcc


@<TRIPOS>ATOM
      1 C1           0.0000     0.0000     0.0000 c          1 ZAH       0.978600
      2 O2          -0.6040     0.9190    -0.5000 o          1 ZAH      -0.885300
      3 O20         -0.6700    -1.0210     0.5560 o          1 ZAH      -0.885300
      4 C3           1.5070     0.0000     0.0000 c3         1 ZAH      -0.082300
      5 C4           2.0310     0.0000     1.4520 c3         1 ZAH      -0.004400
      6 C5           3.2660     0.9350     1.3770 c3         1 ZAH      -0.049400
      7 C6           2.8010     1.9840     0.3360 c3         1 ZAH       0.032000
      8 N7           2.0160     1.2170    -0.6480 n          1 ZAH      -0.100800
      9 C8           1.8000     1.5740    -1.9290 c          1 ZAH       0.591100
     10 O9           1.1360     0.8620    -2.6530 o          1 ZAH      -0.633100
     11 C10          2.3800     2.8570    -2.4640 c3         1 ZAH      -0.056300
     12 C11          1.8390     4.0370    -1.6540 c3         1 ZAH      -0.025100
     13 N14          2.0050     3.0160    -3.8690 ns         1 ZAH      -0.120900
     14 C15          2.8190     3.6780    -4.7150 c          1 ZAH       0.672100
     15 O16          3.8660     4.1440    -4.3090 o          1 ZAH      -0.694000
     16 O17          2.4730     3.8240    -6.0070 os         1 ZAH      -0.427900
     17 C18          3.3510     4.5390    -6.9170 c3         1 ZAH       0.307700
     18 C19          2.7370     4.5610    -8.2930 ca         1 ZAH      -0.108300
     19 C20          1.8980     5.5960    -8.6600 ca         1 ZAH      -0.074000
     20 C21          1.3350     5.6160    -9.9220 ca         1 ZAH      -0.110500
     21 C22          1.6120     4.6020   -10.8180 ca         1 ZAH      -0.099000
     22 C23          2.4520     3.5680   -10.4520 ca         1 ZAH      -0.110500
     23 C24          3.0190     3.5490    -9.1910 ca         1 ZAH      -0.074000
     24 H3           1.8780    -0.8740    -0.5220 h1         1 ZAH       0.032700
     25 H4C1         2.3260    -0.9990     1.7510 hc         1 ZAH       0.025700
     26 H4C2         1.2860     0.4050     2.1260 hc         1 ZAH       0.025700
     27 H5C1         4.1360     0.3970     1.0190 hc         1 ZAH       0.007700
     28 H5C2         3.4560     1.4020     2.3360 hc         1 ZAH       0.007700
     29 H6C1         3.6570     2.4440    -0.1430 h1         1 ZAH       0.010200
     30 H6C2         2.1790     2.7330     0.8100 h1         1 ZAH       0.010200
     31 H10          3.4600     2.8270    -2.3800 h1         1 ZAH       0.058700
     32 H111         1.5010     4.8130    -2.3290 hc         1 ZAH       0.017367
     33 H112         2.6240     4.4280    -1.0170 hc         1 ZAH       0.017367
     34 H113         1.0100     3.7040    -1.0410 hc         1 ZAH       0.017367
     35 H14          1.1270     2.6620    -4.1950 hn         1 ZAH       0.201500
     36 H181         3.4850     5.5550    -6.5650 h1         1 ZAH       0.008200
     37 H182         4.3120     4.0400    -6.9580 h1         1 ZAH       0.008200
     38 HA           1.6810     6.3910    -7.9570 ha         1 ZAH       0.108000
     39 H21          0.6770     6.4280   -10.2080 ha         1 ZAH       0.099500
     40 H22          1.1690     4.6170   -11.8070 ha         1 ZAH       0.097000
     41 H23          2.6710     2.7730   -11.1560 ha         1 ZAH       0.099500
     42 H24          3.6770     2.7380    -8.9040 ha         1 ZAH       0.108000
@<TRIPOS>BOND
     1     1     2 1   
     2     1     3 1   
     3     1     4 1   
     4     4     5 1   
     5     4     8 1   
     6     4    24 1   
     7     5     6 1   
     8     5    25 1   
     9     5    26 1   
    10     6     7 1   
    11     6    27 1   
    12     6    28 1   
    13     7     8 1   
    14     7    29 1   
    15     7    30 1   
    16     8     9 1   
    17     9    10 2   
    18     9    11 1   
    19    11    12 1   
    20    11    13 1   
    21    11    31 1   
    22    12    32 1   
    23    12    33 1   
    24    12    34 1   
    25    13    14 1   
    26    13    35 1   
    27    14    15 2   
    28    14    16 1   
    29    16    17 1   
    30    17    18 1   
    31    17    36 1   
    32    17    37 1   
    33    18    19 ar  
    34    18    23 ar  
    35    19    20 ar  
    36    19    38 1   
    37    20    21 ar  
    38    20    39 1   
    39    21    22 ar  
    40    21    40 1   
    41    22    23 ar  
    42    22    41 1   
    43    23    42 1   
@<TRIPOS>SUBSTRUCTURE
     1 ZAH         1 TEMP              0 ****  ****    0 ROOT
