@<TRIPOS>MOLECULE
molecule
   54    56     1     0     0
SMALL
bcc


@<TRIPOS>ATOM
      1 C13          0.0000     0.0000     0.0000 c3         1 ZAM       0.167300
      2 C21         -0.7130     1.1750    -2.0100 c          1 ZAM       0.661100
      3 C27          4.3320     0.0110    -2.4670 c          1 ZAM       0.697700
      4 C30          6.5060     0.5750    -3.4090 c3         1 ZAM       0.178200
      5 C33          6.2770    -1.1300    -1.5430 c3         1 ZAM       0.102300
      6 C01          2.2030     0.0000     1.2060 ca         1 ZAM       0.194600
      7 C02          1.5070     0.0000     0.0000 ca         1 ZAM      -0.131300
      8 C03          2.1940     0.0050    -1.1920 ca         1 ZAM      -0.052000
      9 C04          3.5920     0.0060    -1.1900 ca         1 ZAM      -0.170600
     10 C05          4.2880     0.0000     0.0220 ca         1 ZAM      -0.100000
     11 C06          3.5950    -0.0040     1.2100 ca         1 ZAM      -0.158000
     12 N16         -0.4870     0.0050    -1.3800 n          1 ZAM      -0.502800
     13 C17         -0.7320    -1.2610    -2.0760 c3         1 ZAM       0.093300
     14 O22         -0.5100     2.2220    -1.4340 o          1 ZAM      -0.603100
     15 C23         -1.2150     1.1810    -3.4310 c3         1 ZAM      -0.170100
     16 N28          5.6660    -0.1760    -2.4720 n          1 ZAM      -0.517800
     17 O29          3.7380     0.1820    -3.5140 o          1 ZAM      -0.602100
     18 C37          6.9380     1.8690    -2.7690 cc         1 ZAM      -0.082300
     19 C38          8.0800     2.0490    -2.0880 cd         1 ZAM      -0.193200
     20 C39          8.0990     3.4440    -1.6430 ca         1 ZAM      -0.107800
     21 C40          6.9060     4.0190    -2.1170 ca         1 ZAM      -0.030200
     22 N41          6.2260     3.0370    -2.8020 na         1 ZAM      -0.061400
     23 C43          4.9320     3.2150    -3.4640 c3         1 ZAM       0.030600
     24 C47          9.0000     4.2170    -0.9090 ca         1 ZAM      -0.080000
     25 C48          8.7190     5.5290    -0.6550 ca         1 ZAM      -0.159000
     26 C51          6.6390     5.3560    -1.8460 ca         1 ZAM      -0.140000
     27 C52          7.5440     6.1000    -1.1200 ca         1 ZAM      -0.110000
     28 H131        -0.3610    -0.8860     0.5070 h1         1 ZAM       0.070700
     29 H132        -0.3610     0.8830     0.5140 h1         1 ZAM       0.070700
     30 H301         7.3810    -0.0130    -3.6600 h1         1 ZAM       0.071200
     31 H302         5.9430     0.7870    -4.3090 h1         1 ZAM       0.071200
     32 H331         5.5180    -1.8050    -1.1660 h1         1 ZAM       0.041033
     33 H332         6.7250    -0.5910    -0.7160 h1         1 ZAM       0.041033
     34 H333         7.0420    -1.6980    -2.0590 h1         1 ZAM       0.041033
     35 H03          1.6540    -0.0590    -2.1280 ha         1 ZAM       0.155000
     36 H05          5.3710    -0.0030     0.0250 ha         1 ZAM       0.148000
     37 H06          4.1330    -0.0060     2.1510 ha         1 ZAM       0.139000
     38 H101         1.2810     0.8600     2.8600 hn         1 ZAM       0.431300
     39 H102         1.2720    -0.8730     2.8480 hn         1 ZAM       0.431300
     40 H171        -0.2020    -1.2620    -3.0210 h1         1 ZAM       0.040033
     41 H172        -1.7940    -1.3750    -2.2570 h1         1 ZAM       0.040033
     42 H173        -0.3800    -2.0830    -1.4650 h1         1 ZAM       0.040033
     43 H231        -0.5060     0.6650    -4.0670 hc         1 ZAM       0.061700
     44 H232        -2.1740     0.6780    -3.4780 hc         1 ZAM       0.061700
     45 H233        -1.3260     2.2040    -3.7710 hc         1 ZAM       0.061700
     46 H38          8.9120     1.3560    -2.0450 ha         1 ZAM       0.150000
     47 H431         4.1350     3.0750    -2.7440 h1         1 ZAM       0.055700
     48 H432         4.8300     2.4870    -4.2600 h1         1 ZAM       0.055700
     49 H433         4.8720     4.2140    -3.8790 h1         1 ZAM       0.055700
     50 H47          9.9200     3.7770    -0.5430 ha         1 ZAM       0.127000
     51 H48          9.4190     6.1280    -0.0850 ha         1 ZAM       0.126000
     52 H51          5.7240     5.8110    -2.2050 ha         1 ZAM       0.127000
     53 H52          7.3350     7.1420    -0.9100 ha         1 ZAM       0.128000
     54 N10          1.5050    -0.0040     2.4090 nv         1 ZAM      -0.993200
@<TRIPOS>BOND
     1     1     7 1
     2     1    12 1
     3     1    28 1
     4     1    29 1
     5     2    12 1
     6     2    14 2
     7     2    15 1
     8     3     9 1
     9     3    16 1
    10     3    17 2
    11     4    16 1
    12     4    18 1
    13     4    30 1
    14     4    31 1
    15     5    16 1
    16     5    32 1
    17     5    33 1
    18     5    34 1
    19     6     7 ar
    20     6    11 ar
    21     6    54 1
    22     7     8 ar
    23     8     9 ar
    24     8    35 1
    25     9    10 ar
    26    10    11 ar
    27    10    36 1
    28    11    37 1
    29    54    38 1
    30    54    39 1
    31    12    13 1
    32    13    40 1
    33    13    41 1
    34    13    42 1
    35    15    43 1
    36    15    44 1
    37    15    45 1
    38    18    19 2
    39    18    22 1
    40    19    20 1
    41    19    46 1
    42    20    21 ar
    43    20    24 ar
    44    21    22 1
    45    21    26 ar
    46    22    23 1
    47    23    47 1
    48    23    48 1
    49    23    49 1
    50    24    25 ar
    51    24    50 1
    52    25    27 ar
    53    25    51 1
    54    26    27 ar
    55    26    52 1
    56    27    53 1
@<TRIPOS>SUBSTRUCTURE
     1 ZAM         1 TEMP              0 ****  ****    0 ROOT
