@<TRIPOS>MOLECULE
molecule
   44    46     1     0     0
SMALL
bcc


@<TRIPOS>ATOM
      1 PA           0.0000     0.0000     0.0000 p5         1 ZAN       1.232700
      2 PB          -0.0210     2.7740    -0.0300 p5         1 ZAN       1.384700
      3 PG          -0.4280     5.6520    -0.6060 p5         1 ZAN       1.327900
      4 O1A          1.6100     0.0000     0.0000 o          1 ZAN      -0.781500
      5 O1B         -0.5580     2.7990     1.4880 o          1 ZAN      -0.791000
      6 O1G          0.9920     6.1400    -1.1860 o          1 ZAN      -0.852500
      7 O2A         -0.4920     0.0000     1.3960 o          1 ZAN      -0.781500
      8 O2B          1.4590     2.7960    -0.0300 o          1 ZAN      -0.791000
      9 O2G         -1.6150     6.4200    -1.3770 o          1 ZAN      -0.852500
     10 N3A         -0.5600     1.3750    -0.7920 n7         1 ZAN      -0.923400
     11 O3B         -0.5770     4.0640    -0.8170 os         1 ZAN      -0.734800
     12 O3G         -0.5020     5.9590     0.8400 o          1 ZAN      -0.852500
     13 O5'         -0.5370    -1.3140    -0.7600 os         1 ZAN      -0.568200
     14 C5'         -1.9090    -1.7130    -0.7490 c3         1 ZAN       0.214400
     15 C4'         -2.0720    -2.9980    -1.5640 c3         1 ZAN       0.114100
     16 O4'         -1.3920    -4.0820    -0.9090 os         1 ZAN      -0.373600
     17 C3'         -3.5640    -3.3780    -1.6490 c3         1 ZAN       0.079100
     18 O3'         -3.9950    -3.4060    -3.0110 oh         1 ZAN      -0.593800
     19 C2'         -3.6310    -4.7940    -1.0260 c3         1 ZAN       0.087100
     20 O2'         -4.5130    -5.6360    -1.7710 oh         1 ZAN      -0.573800
     21 C1'         -2.1630    -5.2770    -1.1590 c3         1 ZAN       0.256800
     22 N9          -1.8660    -6.3020    -0.1560 na         1 ZAN      -0.255000
     23 C8          -1.2940    -6.0960     1.0640 cc         1 ZAN       0.396700
     24 N7          -1.1750    -7.2270     1.6960 nd         1 ZAN      -0.617100
     25 C5          -1.6630    -8.2280     0.9250 ca         1 ZAN      -0.167200
     26 C6          -1.7960    -9.6180     1.0790 ca         1 ZAN       0.613200
     27 N6          -1.3720   -10.2470     2.2360 nv         1 ZAN      -1.059500
     28 N1          -2.3380   -10.3160     0.0850 nb         1 ZAN      -0.782000
     29 C2          -2.7450    -9.7250    -1.0230 ca         1 ZAN       0.591900
     30 N3          -2.6410    -8.4260    -1.2110 nb         1 ZAN      -0.797000
     31 C4          -2.1170    -7.6460    -0.2710 ca         1 ZAN       0.457800
     32 H5          -0.6880     1.3630    -1.7850 hn         1 ZAN       0.360800
     33 H6          -2.5160    -0.9290    -1.1850 h1         1 ZAN       0.028700
     34 H7          -2.2260    -1.8890     0.2720 h1         1 ZAN       0.028700
     35 H8          -1.6710    -2.8620    -2.5610 h1         1 ZAN       0.072700
     36 H9          -4.1620    -2.6840    -1.0710 h1         1 ZAN       0.052700
     37 H10         -4.5930    -2.6940    -3.1660 ho         1 ZAN       0.392000
     38 H11         -3.9240    -4.7410     0.0150 h1         1 ZAN       0.057700
     39 H12         -5.3390    -5.7010    -1.3220 ho         1 ZAN       0.382000
     40 H13         -1.9750    -5.6470    -2.1590 h2         1 ZAN       0.088700
     41 H14         -0.9840    -5.1320     1.4500 h5         1 ZAN       0.103800
     42 H15         -0.4340   -10.5870     2.3060 hn         1 ZAN       0.405300
     43 H16         -2.0050   -10.3600     3.0040 hn         1 ZAN       0.405300
     44 H17         -3.1810   -10.3320    -1.8070 h5         1 ZAN       0.015100
@<TRIPOS>BOND
     1    29    28 ar
     2    29    30 ar
     3    20    19 1
     4    28    26 ar
     5    30    31 ar
     6    19    21 1
     7    19    17 1
     8    26    27 1
     9    26    25 ar
    10    31    25 ar
    11    31    22 1
    12    18    17 1
    13    21    22 1
    14    21    16 1
    15    25    24 1
    16    17    15 1
    17    22    23 1
    18     8     2 1
    19    24    23 2
    20    15    16 1
    21    15    14 1
    22     2     5 1
    23     2    10 1
    24     2    11 1
    25    10     1 1
    26    11     3 1
    27    14    13 1
    28    13     1 1
    29     1     7 1
    30     1     4 1
    31    12     3 1
    32     3     6 1
    33     3     9 1
    34    10    32 1
    35    14    33 1
    36    14    34 1
    37    15    35 1
    38    17    36 1
    39    18    37 1
    40    19    38 1
    41    20    39 1
    42    21    40 1
    43    23    41 1
    44    27    42 1
    45    27    43 1
    46    29    44 1
@<TRIPOS>SUBSTRUCTURE
     1 ZAN         1 TEMP              0 ****  ****    0 ROOT
