@<TRIPOS>MOLECULE
ZAP
   42    43     1     0     0
SMALL
bcc


@<TRIPOS>ATOM
      1 C1           0.0000     0.0000     0.0000 ce         1 ZAP       0.211800
      2 C2           1.4820     0.0000     0.0000 ca         1 ZAP      -0.307900
      3 C3           2.1810     0.0000     1.2060 ca         1 ZAP      -0.097500
      4 C4           3.5610    -0.0010     1.2000 ca         1 ZAP      -0.079000
      5 C5           4.2500    -0.0010     0.0010 ca         1 ZAP      -0.020300
      6 C6           3.5600     0.0000    -1.1990 ca         1 ZAP      -0.079000
      7 C7           2.1810    -0.0070    -1.2060 ca         1 ZAP      -0.097500
      8 C8           5.7560    -0.0010     0.0020 c3         1 ZAP       0.218800
      9 C10          9.1390    -2.6850     2.2270 c3         1 ZAP       0.301700
     10 C11          9.4090    -3.3030     3.5750 ca         1 ZAP      -0.095300
     11 C12          8.9680    -4.5850     3.8470 ca         1 ZAP      -0.075000
     12 C13          9.2140    -5.1520     5.0820 ca         1 ZAP      -0.114500
     13 C14          9.9030    -4.4390     6.0460 ca         1 ZAP      -0.111000
     14 C15         10.3440    -3.1580     5.7730 ca         1 ZAP      -0.114500
     15 C16         10.1010    -2.5930     4.5350 ca         1 ZAP      -0.075000
     16 N1          -0.6510     0.0010     1.1270 n2         1 ZAP      -0.775100
     17 N2          -0.6890     0.0010    -1.1930 nz         1 ZAP       0.226400
     18 N3           6.2440    -0.6910     1.1970 ns         1 ZAP      -0.097900
     19 O3           8.0780    -1.3640     0.1410 o          1 ZAP      -0.636000
     20 O4           7.8710    -1.9790     2.2620 os         1 ZAP      -0.445900
     21 P            6.3640     1.7170     0.0000 p5         1 ZAP       0.376700
     22 H3           1.6540    -0.0010     2.1530 ha         1 ZAP       0.071000
     23 H4           4.0960     0.0020     2.1420 ha         1 ZAP       0.121500
     24 H6           4.1060    -0.0000    -2.1350 ha         1 ZAP       0.121500
     25 H7           1.6340     0.0190    -2.1400 ha         1 ZAP       0.071000
     26 H8           6.1040    -0.5210    -0.8830 h1         1 ZAP       0.081700
     27 H101         9.9140    -1.9550     2.0250 h1         1 ZAP       0.012200
     28 H102         9.1410    -3.4220     1.4330 h1         1 ZAP       0.012200
     29 H12          8.4280    -5.1280     3.0800 ha         1 ZAP       0.111500
     30 H13          8.8690    -6.1570     5.2960 ha         1 ZAP       0.095500
     31 H14         10.0950    -4.8840     7.0150 ha         1 ZAP       0.092000
     32 H15         10.8610    -2.6080     6.5500 ha         1 ZAP       0.095500
     33 H16         10.4340    -1.5830     4.3280 ha         1 ZAP       0.111500
     34 HN1         -0.1270    -0.0020     1.9800 hn         1 ZAP       0.371400
     35 HN21        -0.1440    -0.1910    -2.0110 hn         1 ZAP       0.186133
     36 HN22        -1.3620    -0.7380    -1.2370 hn         1 ZAP       0.186133
     37 HN3          5.6900    -0.6920     2.0300 hn         1 ZAP       0.168500
     38 C9           7.4210    -1.3460     1.1640 c          1 ZAP       0.669100
     39 O1P          5.8710     2.4150    -1.2080 o          1 ZAP      -0.625500
     40 O2P          5.8270     2.4770     1.3150 o          1 ZAP      -0.625500
     41 O3P          7.9740     1.7180    -0.0000 o          1 ZAP      -0.625500
     42 H23         -1.0450     0.9200    -1.3650 hn         1 ZAP       0.186133
@<TRIPOS>BOND
     1     1     2 1   
     2     1    16 2   
     3     1    17 1   
     4     2     3 ar  
     5     2     7 ar  
     6     3     4 ar  
     7     3    22 1   
     8     4     5 ar  
     9     4    23 1   
    10     5     6 ar  
    11     5     8 1   
    12     6     7 ar  
    13     6    24 1   
    14     7    25 1   
    15     8    18 1   
    16     8    21 1   
    17     8    26 1   
    18     9    10 1   
    19     9    20 1   
    20     9    27 1   
    21     9    28 1   
    22    10    11 ar  
    23    10    15 ar  
    24    11    12 ar  
    25    11    29 1   
    26    12    13 ar  
    27    12    30 1   
    28    13    14 ar  
    29    13    31 1   
    30    14    15 ar  
    31    14    32 1   
    32    15    33 1   
    33    16    34 1   
    34    17    35 1   
    35    17    36 1   
    36    17    42 1   
    37    18    37 1   
    38    18    38 1   
    39    19    38 2   
    40    20    38 1   
    41    21    39 1   
    42    21    40 1   
    43    21    41 1   
@<TRIPOS>SUBSTRUCTURE
     1 ZAP         1 TEMP              0 ****  ****    0 ROOT
