@<TRIPOS>MOLECULE
molecule
   42    43     1     0     0
SMALL
bcc


@<TRIPOS>ATOM
      1 C1           0.0000     0.0000     0.0000 ce         1 ZAP       0.534800
      2 C2           1.4820     0.0000     0.0000 ca         1 ZAP      -0.258900
      3 C3           2.1810     0.0000     1.2060 ca         1 ZAP      -0.093500
      4 C4           3.5610    -0.0010     1.2000 ca         1 ZAP      -0.108500
      5 C5           4.2500    -0.0010     0.0010 ca         1 ZAP       0.028700
      6 C6           3.5600     0.0000    -1.1990 ca         1 ZAP      -0.108500
      7 C7           2.1810    -0.0070    -1.2060 ca         1 ZAP      -0.093500
      8 C8           5.7560    -0.0010     0.0020 c3         1 ZAP       0.113800
      9 C10          9.1390    -2.6850     2.2270 c3         1 ZAP       0.223700
     10 C11          9.4090    -3.3030     3.5750 ca         1 ZAP      -0.081300
     11 C12          8.9680    -4.5850     3.8470 ca         1 ZAP      -0.103000
     12 C13          9.2140    -5.1520     5.0820 ca         1 ZAP      -0.140500
     13 C14          9.9030    -4.4390     6.0460 ca         1 ZAP      -0.133000
     14 C15         10.3440    -3.1580     5.7730 ca         1 ZAP      -0.140500
     15 C16         10.1010    -2.5930     4.5350 ca         1 ZAP      -0.103000
     16 N1          -0.6510     0.0010     1.1270 n2         1 ZAP      -0.788100
     17 N2          -0.6890     0.0010    -1.1930 nz         1 ZAP      -0.791600
     18 N3           6.2440    -0.6910     1.1970 ns         1 ZAP      -0.528900
     19 O3           8.0780    -1.3640     0.1410 o          1 ZAP      -0.587000
     20 O4           7.8710    -1.9790     2.2620 os         1 ZAP      -0.462900
     21 P            6.3640     1.7170     0.0000 p5         1 ZAP       0.899700
     22 H3           1.6310    -0.0940     2.1350 ha         1 ZAP       0.103500
     23 H4           4.1260    -0.0130     2.1240 ha         1 ZAP       0.160500
     24 H6           4.1090    -0.0120    -2.1330 ha         1 ZAP       0.160500
     25 H7           1.6510    -0.0100    -2.1510 ha         1 ZAP       0.103500
     26 H8           6.1310    -0.5450    -0.8570 h1         1 ZAP       0.104700
     27 H101         9.1170    -3.4580     1.4680 h1         1 ZAP       0.052700
     28 H102         9.9320    -1.9820     2.0000 h1         1 ZAP       0.052700
     29 H12          8.4350    -5.1400     3.0840 ha         1 ZAP       0.139000
     30 H13          8.8690    -6.1570     5.2950 ha         1 ZAP       0.121500
     31 H14         10.0800    -4.8790     7.0200 ha         1 ZAP       0.117000
     32 H15         10.8890    -2.6010     6.5260 ha         1 ZAP       0.121500
     33 H16         10.4500    -1.5900     4.3200 ha         1 ZAP       0.139000
     34 HN1         -1.6510     0.0030     1.0850 hn         1 ZAP       0.374400
     35 HN21        -1.0000    -0.9170    -1.4420 hn         1 ZAP       0.440467
     36 HN22        -0.0770     0.1940    -1.9610 hn         1 ZAP       0.440467
     37 HN3          5.6650    -0.7560     2.0110 hn         1 ZAP       0.310500
     38 C9           7.4210    -1.3460     1.1640 c          1 ZAP       0.752100
     39 O1P          5.8710     2.4150    -1.2080 o          1 ZAP      -0.803833
     40 O2P          5.8270     2.4770     1.3150 o          1 ZAP      -0.803833
     41 O3P          7.9740     1.7180    -0.0000 o          1 ZAP      -0.803833
     42 H23         -1.4830     0.6060    -1.1350 hn         1 ZAP       0.440467
@<TRIPOS>BOND
     1     1     2 1
     2     1    16 2
     3     1    17 1
     4     2     3 ar
     5     2     7 ar
     6     3     4 ar
     7     3    22 1
     8     4     5 ar
     9     4    23 1
    10     5     6 ar
    11     5     8 1
    12     6     7 ar
    13     6    24 1
    14     7    25 1
    15     8    18 1
    16     8    21 1
    17     8    26 1
    18    38    18 1
    19    38    19 2
    20    38    20 1
    21     9    10 1
    22     9    20 1
    23     9    27 1
    24     9    28 1
    25    10    11 ar
    26    10    15 ar
    27    11    12 ar
    28    11    29 1
    29    12    13 ar
    30    12    30 1
    31    13    14 ar
    32    13    31 1
    33    14    15 ar
    34    14    32 1
    35    15    33 1
    36    16    34 1
    37    17    35 1
    38    17    36 1
    39    18    37 1
    40    39    21 1
    41    40    21 1
    42    41    21 1
    43    42    17 1
@<TRIPOS>SUBSTRUCTURE
     1 ZAP         1 TEMP              0 ****  ****    0 ROOT
