@<TRIPOS>MOLECULE
ZAR
   29    30     1     0     0
SMALL
bcc


@<TRIPOS>ATOM
      1 O1         -0.2510   -0.3000   -0.1480 o         1 ZAR     -0.611500
      2 C2          0.9840   -0.1730   -0.1640 c         1 ZAR      0.660700
      3 N3          1.6930   -0.2250    1.0680 n         1 ZAR     -0.282900
      4 N4          2.9920   -0.1010    1.2060 nc        1 ZAR     -0.409300
      5 C5          3.7450    0.0860    0.1170 cd        1 ZAR      0.365200
      6 C6          3.1630    0.1560   -1.2160 cd        1 ZAR     -0.159600
      7 C7          1.8220    0.0280   -1.3530 cc        1 ZAR     -0.216200
      8 C8          5.2030    0.2290    0.2490 ca        1 ZAR     -0.071900
      9 C9          5.9220   -0.6170    1.1010 ca        1 ZAR     -0.173000
     10 C10         7.3130   -0.4830    1.2010 ca        1 ZAR      0.134100
     11 C11         7.9750    0.5150    0.4470 ca        1 ZAR      0.067100
     12 C12         7.2460    1.3570   -0.3970 ca        1 ZAR     -0.101000
     13 C13         5.8650    1.2140   -0.4960 ca        1 ZAR     -0.146000
     14 C14        10.2480    0.3200   -0.3250 c3        1 ZAR      0.586700
     15 O15         9.3290    0.7260    0.6660 os        1 ZAR     -0.364900
     16 F16        10.0000   -0.9670   -0.6990 f         1 ZAR     -0.246800
     17 F17        10.0360    1.0670   -1.4490 f         1 ZAR     -0.246800
     18 O18         8.1190   -1.2640    1.9980 os        1 ZAR     -0.306900
     19 C19         7.4570   -2.2360    2.8010 c3        1 ZAR      0.109700
     20 HN3         1.1850   -0.3500    1.9260 hn        1 ZAR      0.360500
     21 H6          3.8360    0.3030   -2.0740 ha        1 ZAR      0.158000
     22 H7          1.2970    0.0640   -2.3180 ha        1 ZAR      0.171000
     23 H9          5.3940   -1.3830    1.6870 ha        1 ZAR      0.154000
     24 H12         7.7780    2.1250   -0.9800 ha        1 ZAR      0.158000
     25 H13         5.2940    1.8860   -1.1530 ha        1 ZAR      0.141000
     26 H14        11.2700    0.4730    0.1300 h3        1 ZAR      0.125700
     27 H191        6.7390   -1.7470    3.5030 h1        1 ZAR      0.048700
     28 H192        8.2970   -2.7170    3.3640 h1        1 ZAR      0.048700
     29 H193        6.9330   -2.9860    2.1600 h1        1 ZAR      0.048700
@<TRIPOS>BOND
     1    1    2 2   
     2    2    3 1   
     3    2    7 1   
     4    3    4 1   
     5    3   20 1   
     6    4    5 2   
     7    5    6 1   
     8    5    8 1   
     9    6    7 2   
    10    6   21 1   
    11    7   22 1   
    12    8    9 ar  
    13    8   13 ar  
    14    9   10 ar  
    15    9   23 1   
    16   10   11 ar  
    17   10   18 1   
    18   11   12 ar  
    19   11   15 1   
    20   12   13 ar  
    21   12   24 1   
    22   13   25 1   
    23   14   15 1   
    24   14   16 1   
    25   14   17 1   
    26   14   26 1   
    27   18   19 1   
    28   19   27 1   
    29   19   28 1   
    30   19   29 1   
@<TRIPOS>SUBSTRUCTURE
     1 ZAR         1 TEMP              0 ****  ****    0 ROOT
