@<TRIPOS>MOLECULE
molecule
   34    36     1     0     0
SMALL
bcc


@<TRIPOS>ATOM
      1 N53          0.0000     0.0000     0.0000 n2         1 ZAS      -0.347400
      2 N52          1.2610     0.0000     0.0000 n1         1 ZAS       0.324000
      3 N51          2.5140     0.0000     0.0220 n2         1 ZAS      -0.118200
      4 C5'          3.1440    -0.0000    -1.2560 c3         1 ZAS       0.106800
      5 C4'          3.5850    -1.4330    -1.6120 c3         1 ZAS       0.149100
      6 O4'          4.1590    -1.4480    -2.7720 os         1 ZAS      -0.398600
      7 C3'          4.6800    -1.9340    -0.5920 c3         1 ZAS       0.098100
      8 O3'          4.1670    -2.9060     0.2060 oh         1 ZAS      -0.550800
      9 C2'          5.7980    -2.4900    -1.4370 c3         1 ZAS       0.089100
     10 O2'          6.1860    -3.8430    -0.9450 oh         1 ZAS      -0.560800
     11 C1'          5.2970    -2.5770    -2.6790 c3         1 ZAS       0.230800
     12 N9           5.9990    -2.6780    -3.9170 na         1 ZAS      -0.181000
     13 C8           7.2200    -2.2710    -4.2720 cc         1 ZAS       0.392700
     14 N7           7.7550    -3.2080    -5.0610 nd         1 ZAS      -0.536100
     15 C5           6.8610    -4.1970    -5.1950 ca         1 ZAS      -0.163200
     16 C4           5.7760    -3.8690    -4.4880 ca         1 ZAS       0.445800
     17 N3           4.7200    -4.7020    -4.4550 nb         1 ZAS      -0.796000
     18 C2           4.7560    -5.8700    -5.1370 ca         1 ZAS       0.736900
     19 N1           5.8550    -6.2030    -5.8530 nb         1 ZAS      -0.800000
     20 C6           6.8950    -5.3870    -5.8890 ca         1 ZAS       0.786200
     21 N6           7.9640    -6.3650    -5.9840 nv         1 ZAS      -0.999500
     22 H53         -0.5000     0.0000    -0.8670 hn         1 ZAS       0.621400
     23 H5'          4.0110     0.6490    -1.2320 h1         1 ZAS       0.116700
     24 H5''         2.4460     0.3590    -2.0030 h1         1 ZAS       0.116700
     25 H4'          2.7350    -2.1060    -1.6070 h1         1 ZAS       0.064700
     26 H3'          5.0410    -1.1040     0.0040 h1         1 ZAS       0.047700
     27 HO3'         4.2790    -2.6630     1.1100 ho         1 ZAS       0.424000
     28 H2'          6.6480    -1.8200    -1.4220 h1         1 ZAS       0.062700
     29 HO8'         6.9240    -3.7670    -0.3640 ho         1 ZAS       0.422000
     30 H1'          4.8520    -3.5300    -2.4200 h2         1 ZAS       0.145700
     31 H8           7.6760    -1.3240    -4.0110 h5         1 ZAS       0.090800
     32 H2           3.9050    -6.5390    -5.1090 h5         1 ZAS       0.075100
     33 H61          7.8110    -7.2280    -6.4670 hn         1 ZAS       0.451300
     34 H62          8.8530    -6.1770    -5.5640 hn         1 ZAS       0.451300
@<TRIPOS>BOND
     1     1     2 2
     2    21    20 1
     3     2     3 2
     4    20    19 ar
     5    20    15 ar
     6    19    18 ar
     7     3     4 1
     8    14    15 1
     9    14    13 2
    10    15    16 ar
    11    13    12 1
    12    18    17 ar
    13    16    17 ar
    14    16    12 1
    15     6     5 1
    16     6    11 1
    17    12    11 1
    18     4     5 1
    19     5     7 1
    20    11     9 1
    21     9     7 1
    22     9    10 1
    23     7     8 1
    24     1    22 1
    25     4    23 1
    26     4    24 1
    27     5    25 1
    28     7    26 1
    29     8    27 1
    30     9    28 1
    31    10    29 1
    32    11    30 1
    33    13    31 1
    34    18    32 1
    35    21    33 1
    36    21    34 1
@<TRIPOS>SUBSTRUCTURE
     1 ZAS         1 TEMP              0 ****  ****    0 ROOT
