@<TRIPOS>MOLECULE
ZAS
   34    36     1     0     0
SMALL
bcc


@<TRIPOS>ATOM
      1 N53          0.0000     0.0000     0.0000 n2         1 ZAS      -0.323400
      2 N52          1.2610     0.0000     0.0000 n1         1 ZAS       0.631000
      3 N51          2.5140     0.0000     0.0220 n2         1 ZAS      -0.153200
      4 C5'          3.0990    -0.0000     1.3210 c3         1 ZAS       0.141800
      5 C4'          4.6050    -0.0000     1.1960 c3         1 ZAS       0.153100
      6 O4'          5.0500     0.7990    -0.1160 os         1 ZAS      -0.375600
      7 C3'          4.9180     0.7880     2.2140 c3         1 ZAS       0.058100
      8 O3'          6.2010     0.4130     2.7550 oh         1 ZAS      -0.540800
      9 C2'          5.5440     2.0740     1.7500 c3         1 ZAS       0.201100
     10 O2'          6.7280     2.5800     2.3420 oh         1 ZAS      -0.508800
     11 C1'          5.6420     2.1250     0.3890 c3         1 ZAS       0.106800
     12 N9           5.0750     3.2400    -0.3390 na         1 ZAS       0.248000
     13 C8           4.0750     4.1200    -0.2390 cc         1 ZAS       0.193700
     14 N7           4.1170     4.9200    -1.3100 nd         1 ZAS      -0.468100
     15 C5           5.1480     4.5330    -2.0760 ca         1 ZAS      -0.176200
     16 C4           5.7400     3.4960    -1.4770 ca         1 ZAS       0.251800
     17 N3           6.8120     2.9140    -2.0460 nb         1 ZAS      -0.700000
     18 C2           7.2910     3.3790    -3.2240 ca         1 ZAS       0.720900
     19 N1           6.6930     4.4300    -3.8320 nb         1 ZAS      -0.757000
     20 C6           5.6380     5.0060    -3.2770 ca         1 ZAS       0.594200
     21 N6           5.3210     6.0350    -4.2520 nv         1 ZAS      -0.503500
     22 H53         -0.5010     0.0000     0.8670 hn         1 ZAS       0.479400
     23 H5'          3.0330     0.9940     1.7470 h1         1 ZAS       0.053700
     24 H5''         2.5700    -0.7010     1.9560 h1         1 ZAS       0.053700
     25 H4'          5.1500    -0.9340     1.2670 h1         1 ZAS       0.106700
     26 H3'          4.1640     0.7950     2.9920 h1         1 ZAS       0.039700
     27 HO3'         6.0880     0.0820     3.6310 ho         1 ZAS       0.390000
     28 H2'          4.6810     2.6380     2.0830 h1         1 ZAS      -0.034300
     29 HO8'         6.5050     3.2440     2.9730 ho         1 ZAS       0.400000
     30 H1'          6.7200     2.1130     0.2830 h2         1 ZAS       0.128700
     31 H8           3.2990     4.1190     0.5180 h5         1 ZAS       0.019800
     32 H2           8.1540     2.9090    -3.6800 h5         1 ZAS       0.009100
     33 H61          4.5540     6.6570    -4.0920 hn         1 ZAS       0.282300
     34 H62          5.8810     6.1330    -5.0760 hn         1 ZAS       0.282300
@<TRIPOS>BOND
     1     1     2 2   
     2     1    22 1   
     3     2     3 2   
     4     3     4 1   
     5     4     5 1   
     6     4    23 1   
     7     4    24 1   
     8     5     6 1   
     9     5     7 1   
    10     5    25 1   
    11     6    11 1   
    12     7     8 1   
    13     7     9 1   
    14     7    26 1   
    15     8    27 1   
    16     9    10 1   
    17     9    11 1   
    18     9    28 1   
    19    10    29 1   
    20    11    12 1   
    21    11    30 1   
    22    12    13 1   
    23    12    16 1   
    24    13    14 2   
    25    13    31 1   
    26    14    15 1   
    27    15    16 ar  
    28    15    20 ar  
    29    16    17 ar  
    30    17    18 ar  
    31    18    19 ar  
    32    18    32 1   
    33    19    20 ar  
    34    20    21 1   
    35    21    33 1   
    36    21    34 1   
@<TRIPOS>SUBSTRUCTURE
     1 ZAS         1 TEMP              0 ****  ****    0 ROOT
