@<TRIPOS>MOLECULE
ZAT
   56    57     1     0     0
SMALL
bcc


@<TRIPOS>ATOM
      1 NAA          0.0000     0.0000     0.0000 n2         1 ZAT      -0.639100
      2 CAK          1.3380     0.0000     0.0000 c2         1 ZAT       0.212600
      3 NAB          1.9920     0.0000     1.1680 nz         1 ZAT       0.164900
      4 NAC          1.9920     0.0270    -1.1760 nu         1 ZAT       0.069200
      5 NAD          3.2230     0.0550    -1.1870 n2         1 ZAT      -0.696400
      6 CAL          4.0240     0.0900    -2.2490 ce         1 ZAT       0.511900
      7 CAM          3.4750     0.0530    -3.6790 c3         1 ZAT      -0.057400
      8 CAN          5.3800     0.0090    -1.9370 ca         1 ZAT      -0.214400
      9 CAS          5.8780     0.6740    -0.8190 ca         1 ZAT      -0.014000
     10 CAR          7.2210     0.5460    -0.4820 ca         1 ZAT      -0.153000
     11 CAO          6.2300    -0.8160    -2.6790 ca         1 ZAT      -0.014000
     12 CAP          7.5810    -0.9440    -2.3550 ca         1 ZAT      -0.153000
     13 CAQ          8.0830    -0.2600    -1.2480 ca         1 ZAT      -0.030400
     14 NAE          9.3640    -0.3200    -0.8420 ns         1 ZAT      -0.009100
     15 CAT         10.4500    -0.6640    -1.5660 c          1 ZAT       0.549100
     16 OBD         10.3840    -1.0280    -2.7590 o          1 ZAT      -0.641100
     17 NAF         11.5970    -0.6140    -0.8280 ns         1 ZAT      -0.009100
     18 CAU         12.8780    -0.8200    -1.2480 ca         1 ZAT      -0.030400
     19 CAZ         13.2710    -1.3180    -2.5010 ca         1 ZAT      -0.153000
     20 CAY         14.6270    -1.4530    -2.8090 ca         1 ZAT      -0.014000
     21 CAV         13.8790    -0.4620    -0.3410 ca         1 ZAT      -0.153000
     22 CAW         15.2310    -0.5910    -0.6520 ca         1 ZAT      -0.014000
     23 CAX         15.6340    -1.1000    -1.8900 ca         1 ZAT      -0.214400
     24 CBA         17.0300    -1.2160    -2.1630 ce         1 ZAT       0.511900
     25 CBB         17.6220    -2.1130    -3.2590 c3         1 ZAT      -0.057400
     26 NAG         17.8450    -0.4490    -1.4330 n2         1 ZAT      -0.696400
     27 NAH         19.0800    -0.3690    -1.5360 nu         1 ZAT       0.069200
     28 CBC         19.7830     0.4520    -0.7270 c2         1 ZAT       0.212600
     29 NAJ         21.0970     0.5210    -0.7920 n2         1 ZAT      -0.639100
     30 NAI         19.1880     1.2220     0.1750 nz         1 ZAT       0.164900
     31 HAA         -0.5010    -0.0100     0.8660 hn         1 ZAT       0.353900
     32 HAB1         1.3330    -0.0360     1.9200 hn         1 ZAT       0.224633
     33 HAB2         2.5390     0.8350     1.2440 hn         1 ZAT       0.224633
     34 HAC          1.4860    -0.0860    -2.0320 hn         1 ZAT       0.298800
     35 HAM1         4.2460     0.3750    -4.3700 hc         1 ZAT       0.034533
     36 HAM2         2.6220     0.7170    -3.7560 hc         1 ZAT       0.034533
     37 HAM3         3.1700    -0.9570    -3.9230 hc         1 ZAT       0.034533
     38 HAS          5.2240     1.2980    -0.2220 ha         1 ZAT       0.104250
     39 HAO          5.8380    -1.3470    -3.5390 ha         1 ZAT       0.104250
     40 HAR          7.6070     1.0720     0.3820 ha         1 ZAT       0.135250
     41 HAP          8.2300    -1.5780    -2.9470 ha         1 ZAT       0.135250
     42 HAE          9.5330    -0.0790     0.1150 hn         1 ZAT       0.160000
     43 HAF         11.4830    -0.4010     0.1430 hn         1 ZAT       0.160000
     44 HAZ         12.5200    -1.5990    -3.2300 ha         1 ZAT       0.135250
     45 HAV         13.5970    -0.0640     0.6270 ha         1 ZAT       0.135250
     46 HAY         14.9110    -1.8450    -3.7780 ha         1 ZAT       0.104250
     47 HAW         15.9790    -0.3060     0.0790 ha         1 ZAT       0.104250
     48 HBB1        16.8920    -2.8570    -3.5500 hc         1 ZAT       0.034533
     49 HBB2        17.8850    -1.5080    -4.1180 hc         1 ZAT       0.034533
     50 HBB3        18.5090    -2.6070    -2.8800 hc         1 ZAT       0.034533
     51 HAH         19.5550    -0.9040    -2.2350 hn         1 ZAT       0.298800
     52 HAJ         21.5980     1.1370    -0.1830 hn         1 ZAT       0.353900
     53 HAI1        18.4440     1.7320    -0.2590 hn         1 ZAT       0.224633
     54 HAI2        18.8170     0.6500     0.9090 hn         1 ZAT       0.224633
     55 HAB3         2.5910    -0.8010     1.2150 hn         1 ZAT       0.224633
     56 HAI3        19.8520     1.8680     0.5540 hn         1 ZAT       0.224633
@<TRIPOS>BOND
     1     1     2 2   
     2     1    31 1   
     3     2     3 1   
     4     2     4 1   
     5     3    32 1   
     6     3    33 1   
     7     3    55 1   
     8     4     5 1   
     9     4    34 1   
    10     5     6 2   
    11     6     7 1   
    12     6     8 1   
    13     7    35 1   
    14     7    36 1   
    15     7    37 1   
    16     8     9 ar  
    17     8    11 ar  
    18     9    10 ar  
    19     9    38 1   
    20    10    13 ar  
    21    10    40 1   
    22    11    12 ar  
    23    11    39 1   
    24    12    13 ar  
    25    12    41 1   
    26    13    14 1   
    27    14    15 1   
    28    14    42 1   
    29    15    16 2   
    30    15    17 1   
    31    17    18 1   
    32    17    43 1   
    33    18    19 ar  
    34    18    21 ar  
    35    19    20 ar  
    36    19    44 1   
    37    20    23 ar  
    38    20    46 1   
    39    21    22 ar  
    40    21    45 1   
    41    22    23 ar  
    42    22    47 1   
    43    23    24 1   
    44    24    25 1   
    45    24    26 2   
    46    25    48 1   
    47    25    49 1   
    48    25    50 1   
    49    26    27 1   
    50    27    28 1   
    51    27    51 1   
    52    28    29 2   
    53    28    30 1   
    54    29    52 1   
    55    30    53 1   
    56    30    54 1   
    57    30    56 1   
@<TRIPOS>SUBSTRUCTURE
     1 ZAT         1 TEMP              0 ****  ****    0 ROOT
