@<TRIPOS>MOLECULE
molecule
   56    57     1     0     0
SMALL
bcc


@<TRIPOS>ATOM
      1 NAA          0.0000     0.0000     0.0000 n2         1 ZAT      -0.926100
      2 CAK          1.3380     0.0000     0.0000 c2         1 ZAT       0.749100
      3 NAB          1.9920     0.0000     1.1680 nz         1 ZAT      -0.754600
      4 NAC          1.9920     0.0270    -1.1760 nu         1 ZAT      -0.435800
      5 NAD          3.2230     0.0550    -1.1870 n2         1 ZAT      -0.619900
      6 CAL          4.0240     0.0900    -2.2490 ce         1 ZAT       0.523400
      7 CAM          3.4750     0.0530    -3.6790 c3         1 ZAT      -0.179400
      8 CAN          5.3800     0.0090    -1.9370 ca         1 ZAT      -0.197400
      9 CAS          5.8780     0.6740    -0.8190 ca         1 ZAT      -0.049250
     10 CAR          7.2210     0.5460    -0.4820 ca         1 ZAT      -0.177250
     11 CAO          6.2300    -0.8160    -2.6790 ca         1 ZAT      -0.049250
     12 CAP          7.5810    -0.9440    -2.3550 ca         1 ZAT      -0.177250
     13 CAQ          8.0830    -0.2600    -1.2480 ca         1 ZAT       0.124100
     14 NAE          9.3640    -0.3200    -0.8420 ns         1 ZAT      -0.460100
     15 CAT         10.4500    -0.6640    -1.5660 c          1 ZAT       0.787100
     16 OBD         10.3840    -1.0280    -2.7590 o          1 ZAT      -0.597100
     17 NAF         11.5970    -0.6140    -0.8280 ns         1 ZAT      -0.460100
     18 CAU         12.8780    -0.8200    -1.2480 ca         1 ZAT       0.124100
     19 CAZ         13.2710    -1.3180    -2.5010 ca         1 ZAT      -0.177250
     20 CAY         14.6270    -1.4530    -2.8090 ca         1 ZAT      -0.049250
     21 CAV         13.8790    -0.4620    -0.3410 ca         1 ZAT      -0.177250
     22 CAW         15.2310    -0.5910    -0.6520 ca         1 ZAT      -0.049250
     23 CAX         15.6340    -1.1000    -1.8900 ca         1 ZAT      -0.197400
     24 CBA         17.0300    -1.2160    -2.1630 ce         1 ZAT       0.523400
     25 CBB         17.6220    -2.1130    -3.2590 c3         1 ZAT      -0.179400
     26 NAG         17.8450    -0.4490    -1.4330 n2         1 ZAT      -0.619900
     27 NAH         19.0800    -0.3690    -1.5360 nu         1 ZAT      -0.435800
     28 CBC         19.7830     0.4520    -0.7270 c2         1 ZAT       0.749100
     29 NAJ         21.0970     0.5210    -0.7920 n2         1 ZAT      -0.926100
     30 NAI         19.1880     1.2220     0.1750 nz         1 ZAT      -0.754600
     31 HAA         -0.5010     0.0100    -0.8660 hn         1 ZAT       0.494900
     32 HAB1         2.6270    -0.7730     1.1950 hn         1 ZAT       0.477800
     33 HAB2         2.5030     0.8550     1.2640 hn         1 ZAT       0.477800
     34 HAC          1.4850    -0.0730    -2.0330 hn         1 ZAT       0.466800
     35 HAM1         2.6790     0.7810    -3.7790 hc         1 ZAT       0.073367
     36 HAM2         4.2700     0.2900    -4.3770 hc         1 ZAT       0.073367
     37 HAM3         3.0890    -0.9360    -3.8930 hc         1 ZAT       0.073367
     38 HAS          5.2240     1.2980    -0.2220 ha         1 ZAT       0.138750
     39 HAO          5.8380    -1.3470    -3.5390 ha         1 ZAT       0.138750
     40 HAR          7.6070     1.0720     0.3820 ha         1 ZAT       0.160750
     41 HAP          8.2300    -1.5780    -2.9470 ha         1 ZAT       0.160750
     42 HAE          9.5330    -0.0790     0.1150 hn         1 ZAT       0.320500
     43 HAF         11.4830    -0.4010     0.1430 hn         1 ZAT       0.320500
     44 HAZ         12.5200    -1.5990    -3.2300 ha         1 ZAT       0.160750
     45 HAV         13.5970    -0.0640     0.6270 ha         1 ZAT       0.160750
     46 HAY         14.9110    -1.8450    -3.7780 ha         1 ZAT       0.138750
     47 HAW         15.9790    -0.3060     0.0790 ha         1 ZAT       0.138750
     48 HBB1        17.9990    -1.4960    -4.0660 hc         1 ZAT       0.073367
     49 HBB2        16.8540    -2.7750    -3.6380 hc         1 ZAT       0.073367
     50 HBB3        18.4330    -2.7000    -2.8450 hc         1 ZAT       0.073367
     51 HAH         19.5550    -0.9040    -2.2350 hn         1 ZAT       0.466800
     52 HAJ         21.6590    -0.0880    -0.2310 hn         1 ZAT       0.494900
     53 HAI1        19.8690     1.8080     0.6160 hn         1 ZAT       0.477800
     54 HAI2        18.7470     0.6470     0.8660 hn         1 ZAT       0.477800
     55 HAB3         1.3350    -0.0780     1.9190 hn         1 ZAT       0.477800
     56 HAI3        18.4960     1.7890    -0.2730 hn         1 ZAT       0.477800
@<TRIPOS>BOND
     1     1     2 2
     2     2     3 1
     3     2     4 1
     4     4     5 1
     5     5     6 2
     6     6     7 1
     7     6     8 1
     8     8     9 ar
     9     8    11 ar
    10     9    10 ar
    11    10    13 ar
    12    11    12 ar
    13    12    13 ar
    14    13    14 1
    15    14    15 1
    16    15    16 2
    17    15    17 1
    18    17    18 1
    19    18    19 ar
    20    18    21 ar
    21    19    20 ar
    22    20    23 ar
    23    21    22 ar
    24    22    23 ar
    25    23    24 1
    26    24    25 1
    27    24    26 2
    28    26    27 1
    29    27    28 1
    30    28    29 2
    31    28    30 1
    32     1    31 1
    33     3    32 1
    34     3    33 1
    35     4    34 1
    36     7    35 1
    37     7    36 1
    38     7    37 1
    39     9    38 1
    40    11    39 1
    41    10    40 1
    42    12    41 1
    43    14    42 1
    44    17    43 1
    45    19    44 1
    46    21    45 1
    47    20    46 1
    48    22    47 1
    49    25    48 1
    50    25    49 1
    51    25    50 1
    52    27    51 1
    53    29    52 1
    54    30    53 1
    55    30    54 1
    56    55     3 1
    57    56    30 1
@<TRIPOS>SUBSTRUCTURE
     1 ZAT         1 TEMP              0 ****  ****    0 ROOT
