@<TRIPOS>MOLECULE
molecule
   22    23     1     0     0
SMALL
bcc


@<TRIPOS>ATOM
      1 C01          0.0000     0.0000     0.0000 ca         1 ZAW      -0.068000
      2 C06          1.3840     0.0000     0.0000 ca         1 ZAW      -0.268300
      3 C05          2.0600     0.0000     1.2070 ca         1 ZAW       0.446200
      4 N01          1.4080    -0.0000     2.3540 nb         1 ZAW      -0.694500
      5 C03          0.0930     0.0010     2.4070 ca         1 ZAW       0.477200
      6 C04         -0.6640     0.0010     1.2330 ca         1 ZAW      -0.296900
      7 C02         -2.1400     0.0070     1.2910 c          1 ZAW       0.597300
      8 O01         -2.7120    -0.3900     2.2890 o          1 ZAW      -0.518100
      9 C07         -2.9240     0.4960     0.1380 ca         1 ZAW      -0.296900
     10 C08         -2.3440     1.3600    -0.8020 ca         1 ZAW      -0.068000
     11 C09         -3.1210     1.7870    -1.8640 ca         1 ZAW      -0.268300
     12 C10         -4.4300     1.3540    -1.9640 ca         1 ZAW       0.446200
     13 N02         -4.9500     0.5410    -1.0640 nb         1 ZAW      -0.694500
     14 C12         -4.2510     0.1010    -0.0390 ca         1 ZAW       0.477200
     15 H1          -0.5550    -0.0000    -0.9300 ha         1 ZAW       0.149000
     16 H2           1.9310    -0.0000    -0.9350 ha         1 ZAW       0.143000
     17 H3           3.1440    -0.0010     1.2110 h4         1 ZAW       0.027100
     18 H4          -0.4070     0.0010     3.3680 h4         1 ZAW       0.045600
     19 H5          -1.3150     1.6830    -0.6990 ha         1 ZAW       0.149000
     20 H6          -2.7070     2.4550    -2.6100 ha         1 ZAW       0.143000
     21 H7          -5.0400     1.6900    -2.7930 h4         1 ZAW       0.027100
     22 H8          -4.7130    -0.5650     0.6790 h4         1 ZAW       0.045600
@<TRIPOS>BOND
     1    12    11 ar
     2    12    13 ar
     3    11    10 ar
     4    13    14 ar
     5    10     9 ar
     6     2     1 ar
     7     2     3 ar
     8     1     6 ar
     9    14     9 ar
    10     9     7 1
    11     3     4 ar
    12     6     7 1
    13     6     5 ar
    14     7     8 2
    15     4     5 ar
    16     1    15 1
    17     2    16 1
    18     3    17 1
    19     5    18 1
    20    10    19 1
    21    11    20 1
    22    12    21 1
    23    14    22 1
@<TRIPOS>SUBSTRUCTURE
     1 ZAW         1 TEMP              0 ****  ****    0 ROOT
