@<TRIPOS>MOLECULE
ZAW
   22    23     1     0     0
SMALL
bcc


@<TRIPOS>ATOM
      1 C01         0.0220   -0.1910   -0.0160 ca        1 ZAW     -0.057000
      2 C06         1.4170   -0.2100   -0.0090 ca        1 ZAW     -0.260300
      3 C05         2.0850   -0.0250    1.2160 ca        1 ZAW      0.419200
      4 N01         1.4490    0.1640    2.3890 nb        1 ZAW     -0.668000
      5 C03         0.1040    0.1710    2.3700 ca        1 ZAW      0.447200
      6 C04        -0.6600    0.0090    1.1900 ca        1 ZAW     -0.288900
      7 C02        -2.1330    0.0140    1.2800 c         1 ZAW      0.599300
      8 O01        -2.7140   -0.3900    2.2960 o         1 ZAW     -0.519100
      9 C07        -2.8910    0.5170    0.1170 ca        1 ZAW     -0.288900
     10 C08        -2.4050    1.5300   -0.7190 ca        1 ZAW     -0.057000
     11 C09        -3.1970    1.9680   -1.7810 ca        1 ZAW     -0.260300
     12 C10        -4.4570    1.3710   -1.9700 ca        1 ZAW      0.419200
     13 N02        -4.9460    0.3990   -1.1740 nb        1 ZAW     -0.668000
     14 C12        -4.1770   -0.0090   -0.1490 ca        1 ZAW      0.447200
     15 H1         -0.5350   -0.3410   -0.9540 ha        1 ZAW      0.147000
     16 H2          1.9850   -0.3690   -0.9340 ha        1 ZAW      0.149000
     17 H3          3.1900   -0.0300    1.2650 h4        1 ZAW      0.027100
     18 H4         -0.4030    0.3090    3.3440 h4        1 ZAW      0.044100
     19 H5         -1.4170    1.9790   -0.5350 ha        1 ZAW      0.147000
     20 H6         -2.8520    2.7630   -2.4540 ha        1 ZAW      0.149000
     21 H7         -5.1150    1.6870   -2.8000 h4        1 ZAW      0.027100
     22 H8         -4.6010   -0.7940    0.5050 h4        1 ZAW      0.044100
@<TRIPOS>BOND
     1    1    2 ar  
     2    1    6 ar  
     3    1   15 1   
     4    2    3 ar  
     5    2   16 1   
     6    3    4 ar  
     7    3   17 1   
     8    4    5 ar  
     9    5    6 ar  
    10    5   18 1   
    11    6    7 1   
    12    7    8 2   
    13    7    9 1   
    14    9   10 ar  
    15    9   14 ar  
    16   10   11 ar  
    17   10   19 1   
    18   11   12 ar  
    19   11   20 1   
    20   12   13 ar  
    21   12   21 1   
    22   13   14 ar  
    23   14   22 1   
@<TRIPOS>SUBSTRUCTURE
     1 ZAW         1 TEMP              0 ****  ****    0 ROOT
