@<TRIPOS>MOLECULE
molecule
   34    34     1     0     0
SMALL
bcc


@<TRIPOS>ATOM
      1 C1           0.0000     0.0000     0.0000 c3         1 ZAZ      -0.075400
      2 C2           1.5290     0.0000     0.0000 c3         1 ZAZ      -0.079400
      3 C3           2.0400     0.0000     1.4420 c3         1 ZAZ      -0.079400
      4 C4           1.5290    -1.2490     2.1640 c3         1 ZAZ      -0.079400
      5 C5           0.0000    -1.2480     2.1650 c3         1 ZAZ      -0.075400
      6 C6          -0.5110    -1.2490     0.7220 c3         1 ZAZ      -0.070700
      7 C7          -2.0410    -1.2490     0.7230 c3         1 ZAZ      -0.078400
      8 C8          -2.5500    -2.5550     1.3330 c3         1 ZAZ      -0.081400
      9 C9          -4.0800    -2.5550     1.3340 c3         1 ZAZ      -0.082400
     10 C10         -4.5900    -3.8620     1.9440 c3         1 ZAZ      -0.081400
     11 C11         -6.1210    -3.8620     1.9450 c3         1 ZAZ       0.139400
     12 O1          -6.5970    -5.0830     2.5140 oh         1 ZAZ      -0.611800
     13 H1O         -7.5400    -5.0820     2.5140 ho         1 ZAZ       0.401000
     14 H11         -0.3600    -0.0030    -1.0220 hc         1 ZAZ       0.041200
     15 H12         -0.3600     0.8840     0.5120 hc         1 ZAZ       0.041200
     16 H21          1.8890    -0.8860    -0.5090 hc         1 ZAZ       0.040200
     17 H22          1.8890     0.8860    -0.5090 hc         1 ZAZ       0.040200
     18 H31          3.1230    -0.0030     1.4400 hc         1 ZAZ       0.039700
     19 H32          1.6780     0.8840     1.9530 hc         1 ZAZ       0.039700
     20 H41          1.8900    -1.2460     3.1860 hc         1 ZAZ       0.040200
     21 H42          1.8890    -2.1330     1.6520 hc         1 ZAZ       0.040200
     22 H51         -0.3600    -2.1340     2.6750 hc         1 ZAZ       0.041200
     23 H52         -0.3590    -0.3620     2.6730 hc         1 ZAZ       0.041200
     24 H61         -0.1460    -2.1320     0.2130 hc         1 ZAZ       0.051700
     25 H71         -2.4030    -1.1600    -0.2950 hc         1 ZAZ       0.041200
     26 H72         -2.4020    -0.4120     1.3090 hc         1 ZAZ       0.041200
     27 H81         -2.1880    -2.6440     2.3500 hc         1 ZAZ       0.044700
     28 H82         -2.1890    -3.3920     0.7470 hc         1 ZAZ       0.044700
     29 H91         -4.4410    -1.7180     1.9190 hc         1 ZAZ       0.040700
     30 H92         -4.4420    -2.4660     0.3160 hc         1 ZAZ       0.040700
     31 H101        -4.2290    -3.9510     2.9610 hc         1 ZAZ       0.053700
     32 H102        -4.2300    -4.6990     1.3580 hc         1 ZAZ       0.053700
     33 H111        -6.4810    -3.0250     2.5310 h1         1 ZAZ       0.018700
     34 H112        -6.4820    -3.7730     0.9270 h1         1 ZAZ       0.018700
@<TRIPOS>BOND
     1     1     2 1
     2     1     6 1
     3     1    14 1
     4     1    15 1
     5     2     3 1
     6     2    16 1
     7     2    17 1
     8     3     4 1
     9     3    18 1
    10     3    19 1
    11     4     5 1
    12     4    20 1
    13     4    21 1
    14     5     6 1
    15     5    22 1
    16     5    23 1
    17     6     7 1
    18     6    24 1
    19     7     8 1
    20     7    25 1
    21     7    26 1
    22     8     9 1
    23     8    27 1
    24     8    28 1
    25     9    10 1
    26     9    29 1
    27     9    30 1
    28    10    11 1
    29    10    31 1
    30    10    32 1
    31    11    12 1
    32    11    33 1
    33    11    34 1
    34    13    12 1
@<TRIPOS>SUBSTRUCTURE
     1 ZAZ         1 TEMP              0 ****  ****    0 ROOT
