@<TRIPOS>MOLECULE
ZB6
   31    31     1     0     0
SMALL
bcc


@<TRIPOS>ATOM
      1 C01          0.0000     0.0000     0.0000 c3         1 ZB6      -0.024100
      2 C02          1.5290     0.0000     0.0000 c3         1 ZB6       0.041700
      3 C03          2.0420     0.0000     1.4430 c3         1 ZB6      -0.046400
      4 C04          3.5660     0.1420     1.4390 c3         1 ZB6      -0.030400
      5 C05          3.9560     1.4700     0.7870 c3         1 ZB6      -0.033400
      6 C06          3.4640     1.4870    -0.6640 c3         1 ZB6      -0.084300
      7 N07          2.0220     1.2070    -0.6770 n          1 ZB6      -0.127800
      8 C08          1.1670     2.0430    -1.2980 c          1 ZB6       0.632100
      9 O09         -0.0300     1.8940    -1.1680 o          1 ZB6      -0.727100
     10 C10          1.6970     3.1630    -2.1560 c3         1 ZB6      -0.304400
     11 C11          0.5580     3.7450    -2.9970 c3         1 ZB6       0.163700
     12 S12          1.1970     5.0930    -4.0290 sh         1 ZB6      -0.413900
     13 C13          3.7220     2.8420    -1.2680 c          1 ZB6       0.994600
     14 O14          3.5440     3.8410    -0.6120 o          1 ZB6      -0.862300
     15 O15          4.1490     2.9410    -2.5370 o          1 ZB6      -0.862300
     16 H1          -0.3610    -0.8670     0.5400 hc         1 ZB6       0.018700
     17 H2          -0.3610    -0.0340    -1.0210 hc         1 ZB6       0.018700
     18 H3          -0.3610     0.9010     0.4810 hc         1 ZB6       0.018700
     19 H4           1.8980    -0.8790    -0.5150 h1         1 ZB6       0.007700
     20 H5           1.7690    -0.9320     1.9230 hc         1 ZB6       0.013200
     21 H6           1.6050     0.8320     1.9810 hc         1 ZB6       0.013200
     22 H7           3.9320     0.1200     2.4580 hc         1 ZB6       0.001200
     23 H8           4.0020    -0.6760     0.8770 hc         1 ZB6       0.001200
     24 H9           5.0330     1.5780     0.8040 hc         1 ZB6       0.029200
     25 H10          3.4970     2.2870     1.3320 hc         1 ZB6       0.029200
     26 H11          3.9860     0.7250    -1.2310 h1         1 ZB6       0.029700
     27 H12          2.4710     2.7810    -2.8110 hc         1 ZB6       0.165700
     28 H13          2.1110     3.9390    -1.5230 hc         1 ZB6       0.165700
     29 H14         -0.2150     4.1270    -2.3410 h1         1 ZB6       0.018200
     30 H15          0.1450     2.9690    -3.6300 h1         1 ZB6       0.018200
     31 H16          0.2090     5.5980    -4.7580 hs         1 ZB6       0.136800
@<TRIPOS>BOND
     1     1     2 1   
     2     1    16 1   
     3     1    17 1   
     4     1    18 1   
     5     2     3 1   
     6     2     7 1   
     7     2    19 1   
     8     3     4 1   
     9     3    20 1   
    10     3    21 1   
    11     4     5 1   
    12     4    22 1   
    13     4    23 1   
    14     5     6 1   
    15     5    24 1   
    16     5    25 1   
    17     6     7 1   
    18     6    13 1   
    19     6    26 1   
    20     7     8 1   
    21     8     9 2   
    22     8    10 1   
    23    10    11 1   
    24    10    27 1   
    25    10    28 1   
    26    11    12 1   
    27    11    29 1   
    28    11    30 1   
    29    12    31 1   
    30    13    14 1   
    31    13    15 1   
@<TRIPOS>SUBSTRUCTURE
     1 ZB6         1 TEMP              0 ****  ****    0 ROOT
