@<TRIPOS>MOLECULE
molecule
   65    68     1     0     0
SMALL
bcc


@<TRIPOS>ATOM
      1 O18          0.0000     0.0000     0.0000 o          1 ZBA      -0.544000
      2 C44          1.2080     0.0000     0.0000 c          1 ZBA       0.626100
      3 C45          1.9620     0.0000     1.3050 c3         1 ZBA      -0.085200
      4 C46          0.9860     0.1270     2.4480 c2         1 ZBA      -0.121400
      5 C48          0.5510    -0.9470     3.0580 c2         1 ZBA      -0.200000
      6 C47          0.5130     1.4880     2.8870 c3         1 ZBA      -0.048900
      7 O17          1.8800    -0.0040    -1.1630 os         1 ZBA      -0.418900
      8 C31          1.0890    -0.0260    -2.3810 c3         1 ZBA       0.187300
      9 C30          1.7640     0.8500    -3.4380 c3         1 ZBA      -0.072400
     10 C32          0.9730    -1.4380    -2.8730 c2         1 ZBA      -0.130400
     11 C39          0.0210    -2.3580    -2.1540 c3         1 ZBA      -0.061900
     12 C33          1.6370    -1.9200    -3.8750 c2         1 ZBA      -0.140200
     13 C34          2.6120    -1.1210    -4.6950 c3         1 ZBA       0.178300
     14 O10          2.0050    -0.7940    -5.9470 os         1 ZBA      -0.388600
     15 C29          3.0250     0.1320    -3.9270 c3         1 ZBA      -0.081000
     16 C38          3.8860    -0.2650    -2.7260 c3         1 ZBA       0.158400
     17 O12          4.1430     0.9070    -1.9070 os         1 ZBA      -0.419900
     18 C40          4.9760     0.7510    -0.8660 c          1 ZBA       0.627100
     19 C41          5.2040     1.8900     0.0940 c3         1 ZBA      -0.141100
     20 O13          5.5440    -0.3020    -0.6980 o          1 ZBA      -0.551000
     21 C28          3.8220     1.0690    -4.8540 c3         1 ZBA      -0.026000
     22 C37          4.3900     2.2900    -4.1290 c3         1 ZBA      -0.065100
     23 C35          2.8790     1.4360    -6.0140 cx         1 ZBA       0.010800
     24 C25          2.7900     0.0780    -6.7800 c3         1 ZBA       0.155100
     25 C36          1.7150     2.3920    -5.8520 cx         1 ZBA       0.062400
     26 O11          2.8710     2.6970    -6.6420 op         1 ZBA      -0.356600
     27 C27          4.9130     0.1930    -5.5250 c3         1 ZBA       0.139100
     28 C26          4.2450    -0.4560    -6.7500 c3         1 ZBA       0.096100
     29 O16          4.2430    -1.8780    -6.6140 oh         1 ZBA      -0.587800
     30 O14          6.0310     1.0210    -5.9450 os         1 ZBA      -0.416900
     31 C42          7.2440     0.4470    -5.9550 c          1 ZBA       0.624100
     32 O15          7.3690    -0.7080    -5.6260 o          1 ZBA      -0.543000
     33 C43          8.4500     1.2440    -6.3800 c3         1 ZBA      -0.139100
     34 H45          2.6510     0.8350     1.3240 hc         1 ZBA       0.075700
     35 H45A         2.5140    -0.9270     1.4030 hc         1 ZBA       0.075700
     36 H48         -0.1500    -0.8560     3.8800 ha         1 ZBA       0.117000
     37 H48A         0.8920    -1.9250     2.7430 ha         1 ZBA       0.117000
     38 H47          0.9080     1.7070     3.8720 hc         1 ZBA       0.043367
     39 H47A        -0.5700     1.5000     2.9220 hc         1 ZBA       0.043367
     40 H47B         0.8600     2.2350     2.1840 hc         1 ZBA       0.043367
     41 H31          0.0990     0.3630    -2.1770 h1         1 ZBA       0.085700
     42 H30          2.0350     1.8040    -3.0010 hc         1 ZBA       0.071200
     43 H30A         1.0870     1.0030    -4.2700 hc         1 ZBA       0.071200
     44 H39         -0.8030    -1.7820    -1.7520 hc         1 ZBA       0.050033
     45 H39A         0.5420    -2.8570    -1.3460 hc         1 ZBA       0.050033
     46 H39B        -0.3600    -3.0970    -2.8480 hc         1 ZBA       0.050033
     47 H33          1.4800    -2.9590    -4.1380 ha         1 ZBA       0.139000
     48 H34          3.4920    -1.7260    -4.8800 h1         1 ZBA       0.090700
     49 H38          3.3650    -1.0100    -2.1380 h1         1 ZBA       0.068700
     50 H38A         4.8270    -0.6740    -3.0750 h1         1 ZBA       0.068700
     51 H41          5.2780     1.5030     1.1030 hc         1 ZBA       0.067367
     52 H41A         6.1220     2.4030    -0.1650 hc         1 ZBA       0.067367
     53 H41B         4.3740     2.5840     0.0340 hc         1 ZBA       0.067367
     54 H37          3.6400     2.6920    -3.4580 hc         1 ZBA       0.049367
     55 H37A         5.2650     1.9990    -3.5610 hc         1 ZBA       0.049367
     56 H37B         4.6660     3.0450    -4.8550 hc         1 ZBA       0.049367
     57 H25          2.3940     0.1810    -7.7830 h1         1 ZBA       0.104700
     58 H36          0.8190     2.1420    -6.4070 h1         1 ZBA       0.088200
     59 H36A         1.6520     2.8990    -4.8970 h1         1 ZBA       0.088200
     60 H27          5.2530    -0.5710    -4.8370 h1         1 ZBA       0.100700
     61 H26          4.7660    -0.1680    -7.6550 h1         1 ZBA       0.061700
     62 HO16         4.5100    -2.2720    -7.4290 ho         1 ZBA       0.410000
     63 H43          8.3990     1.4380    -7.4440 hc         1 ZBA       0.070367
     64 H43A         8.4690     2.1850    -5.8420 hc         1 ZBA       0.070367
     65 H43B         9.3500     0.6830    -6.1580 hc         1 ZBA       0.070367
@<TRIPOS>BOND
     1     1     2 2
     2     2     3 1
     3     2     7 1
     4     3     4 1
     5     4     5 2
     6     4     6 1
     7     7     8 1
     8     8     9 1
     9     8    10 1
    10     9    15 1
    11    10    11 1
    12    10    12 2
    13    12    13 1
    14    13    14 1
    15    13    15 1
    16    14    24 1
    17    15    16 1
    18    15    21 1
    19    16    17 1
    20    17    18 1
    21    18    19 1
    22    18    20 2
    23    21    22 1
    24    21    23 1
    25    21    27 1
    26    23    24 1
    27    23    25 1
    28    23    26 1
    29    24    28 1
    30    25    26 1
    31    27    28 1
    32    27    30 1
    33    28    29 1
    34    30    31 1
    35    31    32 2
    36    31    33 1
    37     3    34 1
    38     3    35 1
    39     5    36 1
    40     5    37 1
    41     6    38 1
    42     6    39 1
    43     6    40 1
    44     8    41 1
    45     9    42 1
    46     9    43 1
    47    11    44 1
    48    11    45 1
    49    11    46 1
    50    12    47 1
    51    13    48 1
    52    16    49 1
    53    16    50 1
    54    19    51 1
    55    19    52 1
    56    19    53 1
    57    22    54 1
    58    22    55 1
    59    22    56 1
    60    24    57 1
    61    25    58 1
    62    25    59 1
    63    27    60 1
    64    28    61 1
    65    29    62 1
    66    33    63 1
    67    33    64 1
    68    33    65 1
@<TRIPOS>SUBSTRUCTURE
     1 ZBA         1 TEMP              0 ****  ****    0 ROOT
