@<TRIPOS>MOLECULE
ZBA
   65    68     1     0     0
SMALL
bcc


@<TRIPOS>ATOM
      1 O18        -0.3630    1.1700   -0.1250 o         1 ZBA     -0.548000
      2 C44         0.8310    0.9060    0.0250 c         1 ZBA      0.641100
      3 C45         1.6410    0.9040    1.2910 c3        1 ZBA     -0.088200
      4 C46         1.4040   -0.3420    2.0780 c2        1 ZBA     -0.135400
      5 C48         2.3210   -1.3120    2.1310 c2        1 ZBA     -0.193000
      6 C47         0.1100   -0.4030    2.7980 c3        1 ZBA     -0.067900
      7 O17         1.5900    0.5900   -1.0680 os        1 ZBA     -0.436900
      8 C31         0.9620    0.5210   -2.3650 c3        1 ZBA      0.178300
      9 C30         1.9380    1.1460   -3.3610 c3        1 ZBA     -0.075400
     10 C32         0.6230   -0.9050   -2.6840 c2        1 ZBA     -0.101400
     11 C39        -0.5250   -1.4760   -1.9410 c3        1 ZBA     -0.064900
     12 C33         1.2950   -1.6060   -3.6040 c2        1 ZBA     -0.159200
     13 C34         2.4590   -1.0910   -4.3880 c3        1 ZBA      0.170300
     14 O10         1.9650   -1.0150   -5.7420 os        1 ZBA     -0.405600
     15 C29         3.0640    0.2220   -3.8250 c3        1 ZBA     -0.051000
     16 C38         3.9290   -0.1700   -2.6120 c3        1 ZBA      0.135400
     17 O12         4.3890    1.0320   -1.9720 os        1 ZBA     -0.430900
     18 C40         4.7930    0.9280   -0.6710 c         1 ZBA      0.640100
     19 C41         5.3120    2.2150   -0.1270 c3        1 ZBA     -0.151100
     20 O13         4.6990   -0.1590   -0.0950 o         1 ZBA     -0.551000
     21 C28         3.9210    0.8890   -4.9380 c3        1 ZBA     -0.029000
     22 C37         4.6470    2.1320   -4.4890 c3        1 ZBA     -0.083100
     23 C35         2.9780    1.1400   -6.1160 cx        1 ZBA      0.035800
     24 C25         2.7470   -0.2640   -6.6570 c3        1 ZBA      0.126100
     25 C36         2.0970    2.3080   -6.3510 cx        1 ZBA      0.082400
     26 O11         3.3170    2.1440   -7.0850 os        1 ZBA     -0.385600
     27 C27         4.9100   -0.1780   -5.5270 c3        1 ZBA      0.110100
     28 C26         4.1930   -0.8040   -6.7590 c3        1 ZBA      0.107100
     29 O16         4.2990   -2.2040   -6.7860 oh        1 ZBA     -0.579800
     30 O14         6.0950    0.4440   -6.0290 os        1 ZBA     -0.421900
     31 C42         7.2370    0.3730   -5.2740 c         1 ZBA      0.638100
     32 O15         7.1890   -0.1590   -4.1640 o         1 ZBA     -0.546000
     33 C43         8.4090    0.9830   -5.9620 c3        1 ZBA     -0.150100
     34 H45         2.7320    0.9990    1.0270 hc        1 ZBA      0.080700
     35 H45A        1.3330    1.8020    1.8910 hc        1 ZBA      0.080700
     36 H48         3.2760   -1.2520    1.5860 ha        1 ZBA      0.129500
     37 H48A        2.1680   -2.2260    2.7200 ha        1 ZBA      0.129500
     38 H47        -0.0810   -1.4250    3.2060 hc        1 ZBA      0.047367
     39 H47A       -0.7270   -0.1300    2.1050 hc        1 ZBA      0.047367
     40 H47B        0.1080    0.3230    3.6490 hc        1 ZBA      0.047367
     41 H31         0.0110    1.1310   -2.3490 h1        1 ZBA      0.087700
     42 H30         2.3880    2.0590   -2.8880 hc        1 ZBA      0.068200
     43 H30A        1.3290    1.4590   -4.2490 hc        1 ZBA      0.068200
     44 H39        -0.4430   -1.2230   -0.8530 hc        1 ZBA      0.052367
     45 H39A       -0.5750   -2.5860   -2.0510 hc        1 ZBA      0.052367
     46 H39B       -1.4800   -1.0350   -2.3250 hc        1 ZBA      0.052367
     47 H33         0.9990   -2.6350   -3.8660 ha        1 ZBA      0.139000
     48 H34         3.2710   -1.8780   -4.3760 h1        1 ZBA      0.046700
     49 H38         4.8430   -0.7500   -2.9070 h1        1 ZBA      0.075700
     50 H38A        3.3120   -0.7690   -1.8890 h1        1 ZBA      0.075700
     51 H41         5.1760    3.0450   -0.8600 hc        1 ZBA      0.074033
     52 H41A        6.4000    2.0950    0.1000 hc        1 ZBA      0.074033
     53 H41B        4.7650    2.4550    0.8180 hc        1 ZBA      0.074033
     54 H37         5.0590    2.6650   -5.3820 hc        1 ZBA      0.053700
     55 H37A        5.4910    1.8530   -3.8110 hc        1 ZBA      0.053700
     56 H37B        3.9610    2.8210   -3.9430 hc        1 ZBA      0.053700
     57 H25         2.1840   -0.3140   -7.6230 h1        1 ZBA      0.109700
     58 H36         2.0990    3.1620   -5.6470 h1        1 ZBA      0.082700
     59 H36A        1.1750    2.2020   -6.9520 h1        1 ZBA      0.082700
     60 H27         5.1820   -0.9680   -4.7800 h1        1 ZBA      0.094700
     61 H26         4.6810   -0.4460   -7.7090 h1        1 ZBA      0.110700
     62 HO16        3.5680   -2.5730   -6.2710 ho        1 ZBA      0.411000
     63 H43         8.0840    1.6140   -6.8230 hc        1 ZBA      0.077700
     64 H43A        8.9790    1.6050   -5.2300 hc        1 ZBA      0.077700
     65 H43B        9.0690    0.1610   -6.3370 hc        1 ZBA      0.077700
@<TRIPOS>BOND
     1    1    2 2   
     2    2    3 1   
     3    2    7 1   
     4    3    4 1   
     5    3   34 1   
     6    3   35 1   
     7    4    5 2   
     8    4    6 1   
     9    5   36 1   
    10    5   37 1   
    11    6   38 1   
    12    6   39 1   
    13    6   40 1   
    14    7    8 1   
    15    8    9 1   
    16    8   10 1   
    17    8   41 1   
    18    9   15 1   
    19    9   42 1   
    20    9   43 1   
    21   10   11 1   
    22   10   12 2   
    23   11   44 1   
    24   11   45 1   
    25   11   46 1   
    26   12   13 1   
    27   12   47 1   
    28   13   14 1   
    29   13   15 1   
    30   13   48 1   
    31   14   24 1   
    32   15   16 1   
    33   15   21 1   
    34   16   17 1   
    35   16   49 1   
    36   16   50 1   
    37   17   18 1   
    38   18   19 1   
    39   18   20 2   
    40   19   51 1   
    41   19   52 1   
    42   19   53 1   
    43   21   22 1   
    44   21   23 1   
    45   21   27 1   
    46   22   54 1   
    47   22   55 1   
    48   22   56 1   
    49   23   24 1   
    50   23   25 1   
    51   23   26 1   
    52   24   28 1   
    53   24   57 1   
    54   25   26 1   
    55   25   58 1   
    56   25   59 1   
    57   27   28 1   
    58   27   30 1   
    59   27   60 1   
    60   28   29 1   
    61   28   61 1   
    62   29   62 1   
    63   30   31 1   
    64   31   32 2   
    65   31   33 1   
    66   33   63 1   
    67   33   64 1   
    68   33   65 1   
@<TRIPOS>SUBSTRUCTURE
     1 ZBA         1 TEMP              0 ****  ****    0 ROOT
