@<TRIPOS>MOLECULE
ZBD
   69    71     1     0     0
SMALL
bcc


@<TRIPOS>ATOM
      1 N1           0.0000     0.0000     0.0000 nh         1 ZBD      -0.328900
      2 C7          -0.8900    -0.0000    -1.1640 c3         1 ZBD       0.325100
      3 C8          -1.0990    -1.4150    -1.6370 ca         1 ZBD      -0.118300
      4 C10         -2.3340    -3.4650    -1.5670 ca         1 ZBD      -0.068000
      5 C13         -0.2430    -1.9640    -2.5740 ca         1 ZBD      -0.072000
      6 C15         -1.9060    -5.4310    -4.4940 c3         1 ZBD       0.557900
      7 C24          1.4100     0.0000     0.0000 ca         1 ZBD       0.016600
      8 C26          3.3820    -0.0010     1.3740 ca         1 ZBD      -0.097000
      9 C28          3.6040    -0.0020    -1.0060 ca         1 ZBD      -0.097000
     10 O31         -1.0400    -1.2470     1.8920 o          1 ZBD      -0.572300
     11 S5          -0.4350     0.0070     1.6080 s6         1 ZBD       1.111800
     12 O30         -1.0390     1.2660     1.8790 o          1 ZBD      -0.572300
     13 C25          1.9870     0.0000     1.2580 ca         1 ZBD       0.017600
     14 N6           1.0670     0.0100     2.3270 nh         1 ZBD      -0.326900
     15 C32          1.3690     0.0180     3.7620 c3         1 ZBD       0.264800
     16 C33          1.5960    -1.4170     4.2420 c3         1 ZBD      -0.056400
     17 C34          1.9110    -1.4100     5.7390 c3         1 ZBD      -0.096400
     18 C2           2.1350    -2.8240     6.2110 c          1 ZBD       0.588100
     19 N4           2.4290    -3.0620     7.5050 n          1 ZBD      -0.157800
     20 C39          2.5300    -1.9490     8.4510 c3         1 ZBD       0.062300
     21 C37          2.6470    -4.4370     7.9640 c3         1 ZBD       0.021700
     22 C40          1.6230    -4.7800     9.0500 c3         1 ZBD      -0.012100
     23 C35          4.0590    -4.5650     8.5370 c3         1 ZBD      -0.058400
     24 C38          5.0830    -4.3440     7.4220 c3         1 ZBD       0.221400
     25 O36          6.4030    -4.4630     7.9560 oh         1 ZBD      -0.596800
     26 O3           2.0520    -3.7450     5.4280 o          1 ZBD      -0.643100
     27 C27          4.1810    -0.0020     0.2520 ca         1 ZBD      -0.097000
     28 C29          2.2320    -0.0010    -1.1320 ca         1 ZBD      -0.103000
     29 C12         -0.4340    -3.2620    -3.0090 ca         1 ZBD      -0.068000
     30 C11         -1.4800    -4.0120    -2.5050 ca         1 ZBD      -0.132300
     31 C9          -2.1410    -2.1680    -1.1290 ca         1 ZBD      -0.072000
     32 C14         -1.6880    -5.4280    -2.9800 c3         1 ZBD       0.128100
     33 O17         -2.8340    -5.9830    -2.3320 oh         1 ZBD      -0.530800
     34 C16         -0.4540    -6.2650    -2.6400 c3         1 ZBD       0.557900
     35 F20         -0.2540    -6.2620    -1.2560 f          1 ZBD      -0.193967
     36 F19         -0.6470    -7.5800    -3.0800 f          1 ZBD      -0.193967
     37 F18          0.6680    -5.7210    -3.2750 f          1 ZBD      -0.193967
     38 F21         -2.2170    -6.7280    -4.9170 f          1 ZBD      -0.193967
     39 F22         -2.9610    -4.5710    -4.8160 f          1 ZBD      -0.193967
     40 F23         -0.7400    -4.9990    -5.1340 f          1 ZBD      -0.193967
     41 H1          -1.8450     0.4330    -0.8890 h1         1 ZBD       0.026200
     42 H2          -0.4450     0.5840    -1.9600 h1         1 ZBD       0.026200
     43 H3          -3.1520    -4.0540    -1.1710 ha         1 ZBD       0.131500
     44 H4           0.5760    -1.3750    -2.9690 ha         1 ZBD       0.115500
     45 H5           3.8380    -0.0000     2.3560 ha         1 ZBD       0.109000
     46 H6           4.2310    -0.0030    -1.8900 ha         1 ZBD       0.106000
     47 H7           2.2630     0.6040     3.9400 h1         1 ZBD       0.017700
     48 H8           0.5380     0.4530     4.3040 h1         1 ZBD       0.017700
     49 H9           2.4280    -1.8520     3.7000 hc         1 ZBD       0.047200
     50 H10          0.7030    -2.0040     4.0630 hc         1 ZBD       0.047200
     51 H11          2.8030    -0.8230     5.9180 hc         1 ZBD       0.029200
     52 H12          1.0790    -0.9760     6.2810 hc         1 ZBD       0.029200
     53 H13          3.3870    -2.1000     9.0960 h1         1 ZBD       0.014700
     54 H14          1.6290    -1.9020     9.0520 h1         1 ZBD       0.014700
     55 H15          2.6480    -1.0210     7.9050 h1         1 ZBD       0.014700
     56 H16          2.5310    -5.1190     7.1300 h1         1 ZBD       0.074700
     57 H17          1.4070    -5.8410     9.0200 hc         1 ZBD       0.011033
     58 H18          2.0260    -4.5200    10.0210 hc         1 ZBD       0.011033
     59 H19          0.7120    -4.2210     8.8760 hc         1 ZBD       0.011033
     60 H20          4.2040    -3.8220     9.3130 hc         1 ZBD       0.031700
     61 H21          4.1900    -5.5550     8.9570 hc         1 ZBD       0.031700
     62 H22          4.9520    -3.3540     7.0020 h1         1 ZBD      -0.009800
     63 H23          4.9390    -5.0870     6.6470 h1         1 ZBD      -0.009800
     64 H24          7.0270    -4.4820     7.2500 ho         1 ZBD       0.391000
     65 H25          5.2600    -0.0030     0.3540 ha         1 ZBD       0.106000
     66 H26          1.7850    -0.0010    -2.1190 ha         1 ZBD       0.110000
     67 H27          0.2360    -3.6910    -3.7440 ha         1 ZBD       0.131500
     68 H28         -2.8110    -1.7390    -0.3940 ha         1 ZBD       0.115500
     69 H29         -2.9420    -6.8810    -2.6000 ho         1 ZBD       0.414000
@<TRIPOS>BOND
     1     1     2 1   
     2     1     7 1   
     3     1    11 1   
     4     2     3 1   
     5     2    41 1   
     6     2    42 1   
     7     3     5 ar  
     8     3    31 ar  
     9     4    30 ar  
    10     4    31 ar  
    11     4    43 1   
    12     5    29 ar  
    13     5    44 1   
    14     6    32 1   
    15     6    38 1   
    16     6    39 1   
    17     6    40 1   
    18     7    13 ar  
    19     7    28 ar  
    20     8    13 ar  
    21     8    27 ar  
    22     8    45 1   
    23     9    27 ar  
    24     9    28 ar  
    25     9    46 1   
    26    10    11 2   
    27    11    12 2   
    28    11    14 1   
    29    13    14 1   
    30    14    15 1   
    31    15    16 1   
    32    15    47 1   
    33    15    48 1   
    34    16    17 1   
    35    16    49 1   
    36    16    50 1   
    37    17    18 1   
    38    17    51 1   
    39    17    52 1   
    40    18    19 1   
    41    18    26 2   
    42    19    20 1   
    43    19    21 1   
    44    20    53 1   
    45    20    54 1   
    46    20    55 1   
    47    21    22 1   
    48    21    23 1   
    49    21    56 1   
    50    22    57 1   
    51    22    58 1   
    52    22    59 1   
    53    23    24 1   
    54    23    60 1   
    55    23    61 1   
    56    24    25 1   
    57    24    62 1   
    58    24    63 1   
    59    25    64 1   
    60    27    65 1   
    61    28    66 1   
    62    29    30 ar  
    63    29    67 1   
    64    30    32 1   
    65    31    68 1   
    66    32    33 1   
    67    32    34 1   
    68    33    69 1   
    69    34    35 1   
    70    34    36 1   
    71    34    37 1   
@<TRIPOS>SUBSTRUCTURE
     1 ZBD         1 TEMP              0 ****  ****    0 ROOT
