@<TRIPOS>MOLECULE
molecule
   55    55     1     0     0
SMALL
bcc


@<TRIPOS>ATOM
      1 O7           0.0000     0.0000     0.0000 o          1 ZBF      -0.565100
      2 C            1.2120     0.0000     0.0000 c          1 ZBF       0.680100
      3 N            1.8870     0.0000     1.1670 n          1 ZBF      -0.284500
      4 C12          1.1920     0.1060     2.3770 ca         1 ZBF       0.043600
      5 C19          1.4900     1.1350     3.2610 ca         1 ZBF      -0.117000
      6 C18          0.8020     1.2470     4.4560 ca         1 ZBF      -0.134000
      7 C17         -0.1850     0.3380     4.7760 ca         1 ZBF      -0.107000
      8 C14         -0.4920    -0.6990     3.8930 ca         1 ZBF       0.019000
      9 C15         -1.5160    -1.6430     4.2240 cg         1 ZBF      -0.127000
     10 C16         -2.3520    -2.4280     4.4790 c1         1 ZBF      -0.128500
     11 C13          0.2020    -0.8120     2.6890 ca         1 ZBF      -0.080000
     12 O            3.2990    -0.1060     1.1690 oh         1 ZBF      -0.383100
     13 C1           1.9660    -0.0070    -1.3050 c3         1 ZBF      -0.148400
     14 C2           0.9720    -0.0070    -2.4680 c3         1 ZBF      -0.082400
     15 C3           1.7360    -0.0140    -3.7930 c3         1 ZBF       0.034700
     16 C9           0.7600    -0.1370    -4.9350 c          1 ZBF       0.633100
     17 O6           0.7020     0.7320    -5.7790 o          1 ZBF      -0.645100
     18 N3          -0.0470    -1.2140    -5.0190 ns         1 ZBF      -0.539900
     19 C10         -0.9950    -1.3330    -6.1300 c3         1 ZBF      -0.004000
     20 C11         -1.7720    -2.6170    -5.9910 c          1 ZBF       0.884600
     21 O5          -2.7040    -2.9390    -6.9010 o          1 ZBF      -0.843300
     22 O4          -1.5560    -3.3560    -5.0590 o          1 ZBF      -0.843300
     23 N1           2.4910     1.2330    -3.9290 ns         1 ZBF      -0.559900
     24 C4           3.5930     1.2740    -4.7040 c          1 ZBF       0.666100
     25 O3           3.9590     0.2770    -5.2900 o          1 ZBF      -0.586100
     26 C5           4.3700     2.5580    -4.8430 c3         1 ZBF      -0.179400
     27 C6           5.5650     2.3320    -5.7720 c3         1 ZBF      -0.073400
     28 C7           6.3530     3.6360    -5.9130 c3         1 ZBF      -0.022500
     29 N2           5.5210     4.6410    -6.5870 nz         1 ZBF      -0.792600
     30 C8           7.5970     3.3850    -6.7270 c          1 ZBF       0.874600
     31 O2           8.6760     2.8330    -6.1510 o          1 ZBF      -0.781300
     32 O1           7.6220     3.6810    -7.8990 o          1 ZBF      -0.781300
     33 H1           2.2630     1.8530     3.0140 ha         1 ZBF       0.143000
     34 H2           1.0370     2.0530     5.1410 ha         1 ZBF       0.132000
     35 H3          -0.7340     0.4390     5.7050 ha         1 ZBF       0.135000
     36 H4          -3.1250    -3.1430     4.7300 ha         1 ZBF       0.168500
     37 H5          -0.0260    -1.7600     2.2180 ha         1 ZBF       0.159000
     38 H6           3.5520    -0.9180     1.5760 ho         1 ZBF       0.404000
     39 H7           2.5920     0.8740    -1.3660 hc         1 ZBF       0.068700
     40 H8           2.5850    -0.8950    -1.3600 hc         1 ZBF       0.068700
     41 H9           0.3450    -0.8890    -2.4070 hc         1 ZBF       0.077700
     42 H10          0.3520     0.8800    -2.4130 hc         1 ZBF       0.077700
     43 H11          2.4200    -0.8540    -3.8110 h1         1 ZBF       0.093700
     44 H12          0.0350    -1.9540    -4.3500 hn         1 ZBF       0.333500
     45 H13         -0.4530    -1.3390    -7.0680 h1         1 ZBF       0.047700
     46 H14         -1.6790    -0.4930    -6.1130 h1         1 ZBF       0.047700
     47 H16          2.1750     2.0620    -3.4650 hn         1 ZBF       0.309500
     48 H17          3.7290     3.3250    -5.2600 hc         1 ZBF       0.042200
     49 H18          4.7240     2.8730    -3.8690 hc         1 ZBF       0.042200
     50 H19          6.2060     1.5650    -5.3550 hc         1 ZBF       0.104200
     51 H20          5.2110     2.0160    -6.7460 hc         1 ZBF       0.104200
     52 H21          6.6310     3.9970    -4.9310 hx         1 ZBF       0.096700
     53 H22          4.9810     4.2010    -7.3050 hn         1 ZBF       0.438467
     54 H23          6.1090     5.3420    -6.9950 hn         1 ZBF       0.438467
     55 H231         4.9070     5.0670    -5.9210 hn         1 ZBF       0.438467
@<TRIPOS>BOND
     1    29    28 1
     2    27    28 1
     3    27    26 1
     4    25    24 2
     5    21    20 1
     6    28    30 1
     7    22    20 1
     8    20    19 1
     9    24    26 1
    10    24    23 1
    11    18    19 1
    12    18    16 1
    13    31    30 1
    14    30    32 1
    15    23    15 1
    16    15    16 1
    17    15    14 1
    18     6     7 ar
    19     6     5 ar
    20    16    17 2
    21     7     8 ar
    22     5     4 ar
    23    13    14 1
    24    13     2 1
    25     8     9 1
    26     8    11 ar
    27     4    11 ar
    28     4     3 1
    29     2     3 1
    30     2     1 2
    31     9    10 3
    32     3    12 1
    33     5    33 1
    34     6    34 1
    35     7    35 1
    36    10    36 1
    37    11    37 1
    38    12    38 1
    39    13    39 1
    40    13    40 1
    41    14    41 1
    42    14    42 1
    43    15    43 1
    44    18    44 1
    45    19    45 1
    46    19    46 1
    47    23    47 1
    48    26    48 1
    49    26    49 1
    50    27    50 1
    51    27    51 1
    52    28    52 1
    53    29    53 1
    54    29    54 1
    55    55    29 1
@<TRIPOS>SUBSTRUCTURE
     1 ZBF         1 TEMP              0 ****  ****    0 ROOT
