@<TRIPOS>MOLECULE
ZBF
   55    55     1     0     0
SMALL
bcc


@<TRIPOS>ATOM
      1 O7           0.0000     0.0000     0.0000 o          1 ZBF      -0.611100
      2 C            1.2120     0.0000     0.0000 c          1 ZBF       0.580100
      3 N            1.8870     0.0000     1.1670 n          1 ZBF       0.102500
      4 C12          1.1920     0.1060     2.3770 ca         1 ZBF      -0.094400
      5 C19          1.4900     1.1350     3.2610 ca         1 ZBF      -0.091000
      6 C18          0.8020     1.2470     4.4560 ca         1 ZBF      -0.104000
      7 C17         -0.1850     0.3380     4.7760 ca         1 ZBF      -0.083000
      8 C14         -0.4920    -0.6990     3.8930 ca         1 ZBF       0.046000
      9 C15         -1.5160    -1.6430     4.2240 cg         1 ZBF      -0.136000
     10 C16         -2.3520    -2.4280     4.4790 c1         1 ZBF      -0.098500
     11 C13          0.2020    -0.8120     2.6890 ca         1 ZBF      -0.051000
     12 O            3.2990    -0.1060     1.1690 oh         1 ZBF      -0.462100
     13 C1           1.9660    -0.0070    -1.3050 c3         1 ZBF      -0.095400
     14 C2           0.9720    -0.0070    -2.4680 c3         1 ZBF      -0.029400
     15 C3           1.7360    -0.0140    -3.7930 c3         1 ZBF      -0.063300
     16 C9           0.7600    -0.1370    -4.9350 c          1 ZBF       0.536100
     17 O6           0.7020     0.7320    -5.7790 o          1 ZBF      -0.702100
     18 N3          -0.0470    -1.2140    -5.0190 ns         1 ZBF      -0.125900
     19 C10         -0.9950    -1.3330    -6.1300 c3         1 ZBF      -0.077000
     20 C11         -1.7720    -2.6170    -5.9910 c          1 ZBF       0.972600
     21 O5          -2.7040    -2.9390    -6.9010 o          1 ZBF      -0.889800
     22 O4          -1.5560    -3.3560    -5.0590 o          1 ZBF      -0.889800
     23 N1           2.4910     1.2330    -3.9290 ns         1 ZBF      -0.148900
     24 C4           3.5930     1.2740    -4.7040 c          1 ZBF       0.575100
     25 O3           3.9590     0.2770    -5.2900 o          1 ZBF      -0.628100
     26 C5           4.3700     2.5580    -4.8430 c3         1 ZBF      -0.119400
     27 C6           5.5650     2.3320    -5.7720 c3         1 ZBF      -0.007400
     28 C7           6.3530     3.6360    -5.9130 c3         1 ZBF      -0.206500
     29 N2           5.5210     4.6410    -6.5870 nz         1 ZBF       0.078400
     30 C8           7.5970     3.3850    -6.7270 c          1 ZBF       0.963600
     31 O2           8.6760     2.8330    -6.1510 o          1 ZBF      -0.825300
     32 O1           7.6220     3.6810    -7.8990 o          1 ZBF      -0.825300
     33 H1           2.2630     1.8530     3.0140 ha         1 ZBF       0.112000
     34 H2           1.0370     2.0530     5.1410 ha         1 ZBF       0.103000
     35 H3          -0.7340     0.4390     5.7050 ha         1 ZBF       0.106000
     36 H4          -3.1250    -3.1430     4.7300 ha         1 ZBF       0.139500
     37 H5          -0.0260    -1.7600     2.2180 ha         1 ZBF       0.129000
     38 H6           3.5520    -0.9180     1.5760 ho         1 ZBF       0.400000
     39 H7           2.5920     0.8740    -1.3660 hc         1 ZBF       0.033200
     40 H8           2.5850    -0.8950    -1.3600 hc         1 ZBF       0.033200
     41 H9           0.3450    -0.8890    -2.4070 hc         1 ZBF       0.047200
     42 H10          0.3520     0.8800    -2.4130 hc         1 ZBF       0.047200
     43 H11          2.4200    -0.8540    -3.8110 h1         1 ZBF       0.066700
     44 H12          0.0350    -1.9540    -4.3500 hn         1 ZBF       0.196500
     45 H13         -0.4530    -1.3390    -7.0680 h1         1 ZBF       0.026200
     46 H14         -1.6790    -0.4930    -6.1130 h1         1 ZBF       0.026200
     47 H16          2.1750     2.0620    -3.4650 hn         1 ZBF       0.164500
     48 H17          3.7290     3.3250    -5.2600 hc         1 ZBF       0.011200
     49 H18          4.7240     2.8730    -3.8690 hc         1 ZBF       0.011200
     50 H19          6.2060     1.5650    -5.3550 hc         1 ZBF       0.071200
     51 H20          5.2110     2.0160    -6.7460 hc         1 ZBF       0.071200
     52 H21          6.6310     3.9970    -4.9310 hx         1 ZBF       0.079700
     53 H22          4.9810     4.2010    -7.3050 hn         1 ZBF       0.210800
     54 H23          6.1090     5.3420    -6.9950 hn         1 ZBF       0.210800
     55 H231         4.9070     5.0670    -5.9210 hn         1 ZBF       0.210800
@<TRIPOS>BOND
     1     1     2 2   
     2     2     3 1   
     3     2    13 1   
     4     3     4 1   
     5     3    12 1   
     6     4     5 ar  
     7     4    11 ar  
     8     5     6 ar  
     9     5    33 1   
    10     6     7 ar  
    11     6    34 1   
    12     7     8 ar  
    13     7    35 1   
    14     8     9 1   
    15     8    11 ar  
    16     9    10 3   
    17    10    36 1   
    18    11    37 1   
    19    12    38 1   
    20    13    14 1   
    21    13    39 1   
    22    13    40 1   
    23    14    15 1   
    24    14    41 1   
    25    14    42 1   
    26    15    16 1   
    27    15    23 1   
    28    15    43 1   
    29    16    17 2   
    30    16    18 1   
    31    18    19 1   
    32    18    44 1   
    33    19    20 1   
    34    19    45 1   
    35    19    46 1   
    36    20    21 1   
    37    20    22 1   
    38    23    24 1   
    39    23    47 1   
    40    24    25 2   
    41    24    26 1   
    42    26    27 1   
    43    26    48 1   
    44    26    49 1   
    45    27    28 1   
    46    27    50 1   
    47    27    51 1   
    48    28    29 1   
    49    28    30 1   
    50    28    52 1   
    51    29    53 1   
    52    29    54 1   
    53    29    55 1   
    54    30    31 1   
    55    30    32 1   
@<TRIPOS>SUBSTRUCTURE
     1 ZBF         1 TEMP              0 ****  ****    0 ROOT
