@<TRIPOS>MOLECULE
molecule
   21    21     1     0     0
SMALL
bcc


@<TRIPOS>ATOM
      1 C1           0.0000     0.0000     0.0000 ca         1 ZBR      -0.091300
      2 C2           1.3820     0.0000     0.0000 ca         1 ZBR      -0.091000
      3 C3           2.0730     0.0000     1.1970 ca         1 ZBR      -0.091300
      4 C4           1.3830    -0.0010     2.3940 ca         1 ZBR      -0.091000
      5 C5           0.0000    -0.0010     2.3940 ca         1 ZBR      -0.091300
      6 C6          -0.6920    -0.0010     1.1970 ca         1 ZBR      -0.091000
      7 C7          -0.7540     0.0060    -1.3040 c3         1 ZBR       0.051633
      8 C8           3.5800    -0.0010     1.1960 c3         1 ZBR       0.051633
      9 C9          -0.7530    -0.0020     3.7000 c3         1 ZBR       0.051633
     10 Br1          4.2360     1.8520     1.1970 br         1 ZBR      -0.168400
     11 Br2         -1.0810    -1.8440    -1.8820 br         1 ZBR      -0.168400
     12 Br3         -1.0800     1.8500     4.2700 br         1 ZBR      -0.168400
     13 H2           1.9230     0.0010    -0.9380 ha         1 ZBR       0.141000
     14 H4           1.9250    -0.0010     3.3320 ha         1 ZBR       0.141000
     15 H6          -1.7750    -0.0010     1.1980 ha         1 ZBR       0.141000
     16 H7          -1.7010     0.5160    -1.1720 h1         1 ZBR       0.079700
     17 H7A         -0.1690     0.5210    -2.0570 h1         1 ZBR       0.079700
     18 H8           3.9410    -0.5110     0.3110 h1         1 ZBR       0.079700
     19 H8A          3.9420    -0.5120     2.0810 h1         1 ZBR       0.079700
     20 H9          -1.7000    -0.5120     3.5700 h1         1 ZBR       0.079700
     21 H9A         -0.1680    -0.5140     4.4550 h1         1 ZBR       0.079700
@<TRIPOS>BOND
     1     1     2 ar
     2     1     6 ar
     3     1     7 1
     4     2     3 ar
     5     3     4 ar
     6     3     8 1
     7     4     5 ar
     8     5     6 ar
     9     5     9 1
    10     7    11 1
    11     8    10 1
    12     9    12 1
    13     2    13 1
    14     4    14 1
    15     6    15 1
    16     7    16 1
    17     7    17 1
    18     8    18 1
    19     8    19 1
    20     9    20 1
    21     9    21 1
@<TRIPOS>SUBSTRUCTURE
     1 ZBR         1 TEMP              0 ****  ****    0 ROOT
