@<TRIPOS>MOLECULE
ZBR
   21    21     1     0     0
SMALL
bcc


@<TRIPOS>ATOM
      1 C1         -0.0080   -0.0060   -0.0140 ca        1 ZBR     -0.088300
      2 C2          1.3910    0.0010   -0.0110 ca        1 ZBR     -0.089000
      3 C3          2.0930    0.0150    1.1990 ca        1 ZBR     -0.088300
      4 C4          1.3910    0.0230    2.4090 ca        1 ZBR     -0.089000
      5 C5         -0.0080    0.0130    2.4130 ca        1 ZBR     -0.088300
      6 C6         -0.7050   -0.0000    1.2000 ca        1 ZBR     -0.089000
      7 C7         -0.7480   -0.0020   -1.2940 c3        1 ZBR      0.034633
      8 C8          3.5720    0.0040    1.1980 c3        1 ZBR      0.034633
      9 C9         -0.7480    0.0020    3.6930 c3        1 ZBR      0.034633
     10 BR1         4.3320    1.7800    1.1300 br        1 ZBR     -0.165067
     11 BR2        -1.1220   -1.7840   -1.9440 br        1 ZBR     -0.165067
     12 BR3        -1.1870    1.7770    4.3180 br        1 ZBR     -0.165067
     13 H2          1.9410   -0.0040   -0.9640 ha        1 ZBR      0.143000
     14 H4          1.9420    0.0410    3.3620 ha        1 ZBR      0.143000
     15 H6         -1.8060   -0.0060    1.2000 ha        1 ZBR      0.143000
     16 H7         -1.7380    0.5040   -1.1880 h1        1 ZBR      0.082700
     17 H7A        -0.1620    0.5040   -2.0980 h1        1 ZBR      0.082700
     18 H8          3.9740   -0.4690    2.1260 h1        1 ZBR      0.082700
     19 H8A         3.9710   -0.5380    0.3070 h1        1 ZBR      0.082700
     20 H9         -1.7180   -0.5400    3.5930 h1        1 ZBR      0.082700
     21 H9A        -0.1440   -0.4710    4.5040 h1        1 ZBR      0.082700
@<TRIPOS>BOND
     1    1    2 ar  
     2    1    6 ar  
     3    1    7 1   
     4    2    3 ar  
     5    2   13 1   
     6    3    4 ar  
     7    3    8 1   
     8    4    5 ar  
     9    4   14 1   
    10    5    6 ar  
    11    5    9 1   
    12    6   15 1   
    13    7   11 1   
    14    7   16 1   
    15    7   17 1   
    16    8   10 1   
    17    8   18 1   
    18    8   19 1   
    19    9   12 1   
    20    9   20 1   
    21    9   21 1   
@<TRIPOS>SUBSTRUCTURE
     1 ZBR         1 TEMP              0 ****  ****    0 ROOT
