@<TRIPOS>MOLECULE
molecule
   62    66     1     0     0
SMALL
bcc


@<TRIPOS>ATOM
      1 C01          0.0000     0.0000     0.0000 ca         1 ZBS      -0.124750
      2 C02          1.3820     0.0000     0.0000 ca         1 ZBS      -0.120500
      3 C03          2.0730     0.0000     1.1980 ca         1 ZBS      -0.124750
      4 C04          1.3810     0.0020     2.3950 ca         1 ZBS      -0.107000
      5 C05         -0.0010     0.0030     2.3950 ca         1 ZBS      -0.074300
      6 C06         -0.6910     0.0070     1.1970 ca         1 ZBS      -0.107000
      7 C07         -0.7560     0.0030     3.6990 c3         1 ZBS      -0.104100
      8 C08         -1.0060     1.4240     4.1340 c          1 ZBS       0.641100
      9 C09         -1.8990     2.9820     5.6830 cc         1 ZBS       0.523300
     10 C10         -2.4660     5.1480     6.6650 cd         1 ZBS       0.411700
     11 C11         -2.9190     6.3520     7.4510 c3         1 ZBS      -0.087500
     12 C12         -1.7020     7.1920     7.8430 c3         1 ZBS      -0.067900
     13 C13         -2.1610     8.4130     8.6410 c3         1 ZBS      -0.091400
     14 C14         -3.1080     9.2550     7.7840 c3         1 ZBS      -0.067900
     15 C15         -4.3240     8.4160     7.3920 c3         1 ZBS      -0.087500
     16 C16         -3.8650     7.1940     6.5940 c3         1 ZBS      -0.061400
     17 C17         -5.0430     7.9620     8.6370 cc         1 ZBS       0.411700
     18 C18         -6.5220     7.4260    10.5090 cc         1 ZBS       0.523300
     19 C19         -7.2240     6.4930    12.5730 c          1 ZBS       0.641100
     20 C20         -8.2850     6.2770    13.6220 c3         1 ZBS      -0.104100
     21 C21         -7.7250     5.4280    14.7340 ca         1 ZBS      -0.074300
     22 C22         -7.8280     4.0510    14.6710 ca         1 ZBS      -0.107000
     23 C23         -7.3150     3.2720    15.6910 ca         1 ZBS      -0.124750
     24 C24         -6.6990     3.8700    16.7740 ca         1 ZBS      -0.120500
     25 C25         -6.5940     5.2470    16.8370 ca         1 ZBS      -0.124750
     26 C26         -7.1030     6.0260    15.8150 ca         1 ZBS      -0.107000
     27 N01         -1.6690     1.6700     5.2810 ns         1 ZBS      -0.532400
     28 N02         -1.8260     5.1670     5.5380 nc         1 ZBS      -0.302500
     29 N03         -1.5320     4.0470     5.0370 nc         1 ZBS      -0.339000
     30 N04         -5.3120     6.9570    10.5480 nd         1 ZBS      -0.339000
     31 N05         -4.5440     7.2320     9.5840 nd         1 ZBS      -0.302500
     32 N06         -7.5000     7.2280    11.4770 ns         1 ZBS      -0.532400
     33 O01         -0.6100     2.3450     3.4520 o          1 ZBS      -0.506600
     34 O02         -6.1230     6.0040    12.7140 o          1 ZBS      -0.506600
     35 S01         -2.7220     3.4600     7.1080 ss         1 ZBS      -0.321300
     36 S02         -6.7130     8.3340     9.0690 ss         1 ZBS      -0.321300
     37 H1          -0.5420     0.0020    -0.9380 ha         1 ZBS       0.130500
     38 H2           1.9240    -0.0040    -0.9380 ha         1 ZBS       0.129500
     39 H3           3.1570    -0.0000     1.1990 ha         1 ZBS       0.130500
     40 H4           1.9220    -0.0000     3.3330 ha         1 ZBS       0.128500
     41 H5          -1.7750     0.0080     1.1970 ha         1 ZBS       0.128500
     42 H6          -1.7020    -0.5070     3.5690 hc         1 ZBS       0.066950
     43 H7          -0.1710    -0.5090     4.4540 hc         1 ZBS       0.066950
     44 H8          -3.4360     6.0300     8.3470 hc         1 ZBS       0.081700
     45 H9          -1.1880     7.5200     6.9480 hc         1 ZBS       0.050950
     46 H10         -1.0330     6.5950     8.4520 hc         1 ZBS       0.050950
     47 H11         -1.2990     9.0090     8.9160 hc         1 ZBS       0.061700
     48 H12         -2.6800     8.0860     9.5340 hc         1 ZBS       0.061700
     49 H13         -3.4340    10.1190     8.3510 hc         1 ZBS       0.050950
     50 H14         -2.5900     9.5790     6.8890 hc         1 ZBS       0.050950
     51 H15         -4.9910     9.0130     6.7820 hc         1 ZBS       0.081700
     52 H16         -4.7270     6.5980     6.3200 hc         1 ZBS       0.059700
     53 H17         -3.3470     7.5210     5.7010 hc         1 ZBS       0.059700
     54 H18         -9.1360     5.7760    13.1780 hc         1 ZBS       0.066950
     55 H19         -8.5980     7.2350    14.0220 hc         1 ZBS       0.066950
     56 H20         -8.3110     3.5830    13.8220 ha         1 ZBS       0.128500
     57 H21         -7.3960     2.1930    15.6420 ha         1 ZBS       0.130500
     58 H22         -6.2980     3.2600    17.5740 ha         1 ZBS       0.129500
     59 H23         -6.1090     5.7150    17.6850 ha         1 ZBS       0.130500
     60 H24         -7.0210     7.1050    15.8640 ha         1 ZBS       0.128500
     61 H25         -1.9790     0.9100     5.8530 hn         1 ZBS       0.335000
     62 H26         -8.4080     7.6320    11.3610 hn         1 ZBS       0.335000
@<TRIPOS>BOND
     1     4     3 ar
     2     4     5 ar
     3     3     2 ar
     4    29    28 1
     5    29     9 2
     6    27     9 1
     7    27     8 1
     8     7     5 1
     9     7     8 1
    10     5     6 ar
    11     2     1 ar
    12    28    10 2
    13     9    35 1
    14     6     1 ar
    15     8    33 2
    16    13    12 1
    17    13    14 1
    18    10    35 1
    19    10    11 1
    20    12    11 1
    21    14    15 1
    22    15    16 1
    23    15    17 1
    24    11    16 1
    25    34    19 2
    26    36    17 1
    27    36    18 1
    28    17    31 2
    29    22    23 ar
    30    22    21 ar
    31    23    24 ar
    32    19    20 1
    33    19    32 1
    34    20    21 1
    35    18    32 1
    36    18    30 2
    37    31    30 1
    38    21    26 ar
    39    24    25 ar
    40    26    25 ar
    41     1    37 1
    42     2    38 1
    43     3    39 1
    44     4    40 1
    45     6    41 1
    46     7    42 1
    47     7    43 1
    48    11    44 1
    49    12    45 1
    50    12    46 1
    51    13    47 1
    52    13    48 1
    53    14    49 1
    54    14    50 1
    55    15    51 1
    56    16    52 1
    57    16    53 1
    58    20    54 1
    59    20    55 1
    60    22    56 1
    61    23    57 1
    62    24    58 1
    63    25    59 1
    64    26    60 1
    65    27    61 1
    66    32    62 1
@<TRIPOS>SUBSTRUCTURE
     1 ZBS         1 TEMP              0 ****  ****    0 ROOT
