@<TRIPOS>MOLECULE
ZBS
   62    66     1     0     0
SMALL
bcc


@<TRIPOS>ATOM
      1 C01          0.0000     0.0000     0.0000 ca         1 ZBS      -0.097250
      2 C02          1.3820     0.0000     0.0000 ca         1 ZBS      -0.096000
      3 C03          2.0730     0.0000     1.1980 ca         1 ZBS      -0.097250
      4 C04          1.3810     0.0020     2.3950 ca         1 ZBS      -0.082000
      5 C05         -0.0010     0.0030     2.3950 ca         1 ZBS      -0.078800
      6 C06         -0.6910     0.0070     1.1970 ca         1 ZBS      -0.082000
      7 C07         -0.7560     0.0030     3.6990 c3         1 ZBS      -0.031600
      8 C08         -1.0060     1.4240     4.1340 c          1 ZBS       0.530100
      9 C09         -1.8990     2.9820     5.6830 cc         1 ZBS       0.376800
     10 C10         -2.4660     5.1480     6.6650 cc         1 ZBS       0.412700
     11 C11         -2.9190     6.3520     7.4510 c3         1 ZBS      -0.059500
     12 C12         -1.7020     7.1920     7.8430 c3         1 ZBS      -0.014900
     13 C13         -2.1610     8.4130     8.6410 c3         1 ZBS      -0.054400
     14 C14         -3.1080     9.2550     7.7840 c3         1 ZBS      -0.014900
     15 C15         -4.3240     8.4160     7.3920 c3         1 ZBS      -0.059500
     16 C16         -3.8650     7.1940     6.5940 c3         1 ZBS      -0.016400
     17 C17         -5.0430     7.9620     8.6370 cc         1 ZBS       0.412700
     18 C18         -6.5220     7.4260    10.5090 cc         1 ZBS       0.376800
     19 C19         -7.2240     6.4930    12.5730 c          1 ZBS       0.530100
     20 C20         -8.2850     6.2770    13.6220 c3         1 ZBS      -0.031600
     21 C21         -7.7250     5.4280    14.7340 ca         1 ZBS      -0.078800
     22 C22         -7.8280     4.0510    14.6710 ca         1 ZBS      -0.082000
     23 C23         -7.3150     3.2720    15.6910 ca         1 ZBS      -0.097250
     24 C24         -6.6990     3.8700    16.7740 ca         1 ZBS      -0.096000
     25 C25         -6.5940     5.2470    16.8370 ca         1 ZBS      -0.097250
     26 C26         -7.1030     6.0260    15.8150 ca         1 ZBS      -0.082000
     27 N01         -1.6690     1.6700     5.2810 ns         1 ZBS      -0.072400
     28 N02         -1.8260     5.1670     5.5380 nd         1 ZBS      -0.252000
     29 N03         -1.5320     4.0470     5.0370 nd         1 ZBS      -0.293500
     30 N04         -5.3120     6.9570    10.5480 nd         1 ZBS      -0.293500
     31 N05         -4.5440     7.2320     9.5840 nd         1 ZBS      -0.252000
     32 N06         -7.5000     7.2280    11.4770 ns         1 ZBS      -0.072400
     33 O01         -0.6100     2.3450     3.4520 o          1 ZBS      -0.540600
     34 O02         -6.1230     6.0040    12.7140 o          1 ZBS      -0.540600
     35 S01         -2.7220     3.4600     7.1080 ss         1 ZBS      -0.395300
     36 S02         -6.7130     8.3340     9.0690 ss         1 ZBS      -0.395300
     37 H1          -0.5420     0.0020    -0.9380 ha         1 ZBS       0.102250
     38 H2           1.9240    -0.0040    -0.9380 ha         1 ZBS       0.101000
     39 H3           3.1570    -0.0000     1.1990 ha         1 ZBS       0.102250
     40 H4           1.9220    -0.0000     3.3330 ha         1 ZBS       0.101500
     41 H5          -1.7750     0.0080     1.1970 ha         1 ZBS       0.101500
     42 H6          -1.7020    -0.5070     3.5690 hc         1 ZBS       0.030450
     43 H7          -0.1710    -0.5090     4.4540 hc         1 ZBS       0.030450
     44 H8          -3.4360     6.0300     8.3470 hc         1 ZBS       0.055700
     45 H9          -1.1880     7.5200     6.9480 hc         1 ZBS       0.021950
     46 H10         -1.0330     6.5950     8.4520 hc         1 ZBS       0.021950
     47 H11         -1.2990     9.0090     8.9160 hc         1 ZBS       0.035200
     48 H12         -2.6800     8.0860     9.5340 hc         1 ZBS       0.035200
     49 H13         -3.4340    10.1190     8.3510 hc         1 ZBS       0.021950
     50 H14         -2.5900     9.5790     6.8890 hc         1 ZBS       0.021950
     51 H15         -4.9910     9.0130     6.7820 hc         1 ZBS       0.055700
     52 H16         -4.7270     6.5980     6.3200 hc         1 ZBS       0.030200
     53 H17         -3.3470     7.5210     5.7010 hc         1 ZBS       0.030200
     54 H18         -9.1360     5.7760    13.1780 hc         1 ZBS       0.030450
     55 H19         -8.5980     7.2350    14.0220 hc         1 ZBS       0.030450
     56 H20         -8.3110     3.5830    13.8220 ha         1 ZBS       0.101500
     57 H21         -7.3960     2.1930    15.6420 ha         1 ZBS       0.102250
     58 H22         -6.2980     3.2600    17.5740 ha         1 ZBS       0.101000
     59 H23         -6.1090     5.7150    17.6850 ha         1 ZBS       0.102250
     60 H24         -7.0210     7.1050    15.8640 ha         1 ZBS       0.101500
     61 H25         -1.9790     0.9100     5.8530 hn         1 ZBS       0.174000
     62 H26         -8.4080     7.6320    11.3610 hn         1 ZBS       0.174000
@<TRIPOS>BOND
     1     1     2 ar  
     2     1     6 ar  
     3     1    37 1   
     4     2     3 ar  
     5     2    38 1   
     6     3     4 ar  
     7     3    39 1   
     8     4     5 ar  
     9     4    40 1   
    10     5     6 ar  
    11     5     7 1   
    12     6    41 1   
    13     7     8 1   
    14     7    42 1   
    15     7    43 1   
    16     8    27 1   
    17     8    33 2   
    18     9    27 1   
    19     9    29 2   
    20     9    35 1   
    21    10    11 1   
    22    10    28 2   
    23    10    35 1   
    24    11    12 1   
    25    11    16 1   
    26    11    44 1   
    27    12    13 1   
    28    12    45 1   
    29    12    46 1   
    30    13    14 1   
    31    13    47 1   
    32    13    48 1   
    33    14    15 1   
    34    14    49 1   
    35    14    50 1   
    36    15    16 1   
    37    15    17 1   
    38    15    51 1   
    39    16    52 1   
    40    16    53 1   
    41    17    31 2   
    42    17    36 1   
    43    18    30 2   
    44    18    32 1   
    45    18    36 1   
    46    19    20 1   
    47    19    32 1   
    48    19    34 2   
    49    20    21 1   
    50    20    54 1   
    51    20    55 1   
    52    21    22 ar  
    53    21    26 ar  
    54    22    23 ar  
    55    22    56 1   
    56    23    24 ar  
    57    23    57 1   
    58    24    25 ar  
    59    24    58 1   
    60    25    26 ar  
    61    25    59 1   
    62    26    60 1   
    63    27    61 1   
    64    28    29 1   
    65    30    31 1   
    66    32    62 1   
@<TRIPOS>SUBSTRUCTURE
     1 ZBS         1 TEMP              0 ****  ****    0 ROOT
