@<TRIPOS>MOLECULE
molecule
   22    22     1     0     0
SMALL
bcc


@<TRIPOS>ATOM
      1 S1           0.0000     0.0000     0.0000 ss         1 ZBT      -0.364300
      2 C2           1.7680     0.0000     0.0000 c2         1 ZBT       0.499200
      3 N3           2.2050     0.0000     1.1970 n2         1 ZBT      -0.621900
      4 C4           1.2790     0.0000     2.3070 c3         1 ZBT       0.111800
      5 C5          -0.1780     0.0000     1.8140 c3         1 ZBT      -0.012300
      6 C6           2.6320    -0.0000    -1.2360 c3         1 ZBT      -0.081000
      7 C7           3.9960    -0.6100    -0.9040 c3         1 ZBT      -0.072400
      8 C8           4.8270    -0.7250    -2.1820 c3         1 ZBT      -0.095100
      9 C9           2.8210     1.4360    -1.7260 c3         1 ZBT      -0.086100
     10 H4           1.4490    -0.8840     2.9090 h1         1 ZBT       0.075200
     11 H5          -0.6930     0.8930     2.1460 h1         1 ZBT       0.078700
     12 H6           2.1530    -0.5870    -2.0110 hc         1 ZBT       0.069700
     13 H7           3.8570    -1.5940    -0.4730 hc         1 ZBT       0.055200
     14 H7A          4.5120     0.0250    -0.1930 hc         1 ZBT       0.055200
     15 H8           5.5800    -1.4930    -2.0550 hc         1 ZBT       0.034367
     16 H8A          5.3100     0.2230    -2.3860 hc         1 ZBT       0.034367
     17 H8B          4.1810    -0.9870    -3.0110 hc         1 ZBT       0.034367
     18 H9           2.2640     2.1120    -1.0880 hc         1 ZBT       0.043700
     19 H9A          3.8720     1.6940    -1.6940 hc         1 ZBT       0.043700
     20 H9B          2.4600     1.5210    -2.7440 hc         1 ZBT       0.043700
     21 H12          1.4490     0.8850     2.9090 h1         1 ZBT       0.075200
     22 H13         -0.6930    -0.8930     2.1460 h1         1 ZBT       0.078700
@<TRIPOS>BOND
     1     1     2 1
     2     1     5 1
     3     2     3 2
     4     2     6 1
     5     3     4 1
     6     4     5 1
     7     4    10 1
     8     5    11 1
     9     6     7 1
    10     6     9 1
    11     6    12 1
    12     7     8 1
    13     7    13 1
    14     7    14 1
    15     8    15 1
    16     8    16 1
    17     8    17 1
    18     9    18 1
    19     9    19 1
    20     9    20 1
    21     4    21 1
    22     5    22 1
@<TRIPOS>SUBSTRUCTURE
     1 ZBT         1 TEMP              0 ****  ****    0 ROOT
