@<TRIPOS>MOLECULE
ZC3
   21    22     1     0     0
SMALL
bcc


@<TRIPOS>ATOM
      1 NAG          0.0000     0.0000     0.0000 nc         1 ZC3      -0.518100
      2 CAM          1.3480     0.0000     0.0000 ca         1 ZC3       0.122400
      3 CAF          2.2310     0.0000     1.1020 ca         1 ZC3      -0.096000
      4 CAK          3.5890    -0.0000     0.9030 ca         1 ZC3       0.112900
      5 FAC          4.4220     0.0000     1.9680 f          1 ZC3      -0.127900
      6 CAD          4.1160    -0.0000    -0.3820 ca         1 ZC3      -0.136000
      7 CAE          3.2730    -0.0000    -1.4710 ca         1 ZC3      -0.009000
      8 CAN          1.8920    -0.0000    -1.2870 ca         1 ZC3      -0.068100
      9 SAI          0.5680    -0.0000    -2.4500 ss         1 ZC3      -0.125100
     10 CAL         -0.6020     0.0000    -1.1380 cd         1 ZC3       0.319800
     11 NAH         -1.9780     0.0000    -1.3050 ns         1 ZC3       0.006600
     12 CAJ         -2.5060     0.0000    -2.5450 c          1 ZC3       0.544100
     13 OAB         -1.7790     0.0000    -3.5150 o          1 ZC3      -0.594100
     14 CAA         -4.0030     0.0000    -2.7260 c3         1 ZC3      -0.061100
     15 HAF          1.8340     0.0000     2.1100 ha         1 ZC3       0.128000
     16 HAD          5.1900    -0.0000    -0.5280 ha         1 ZC3       0.123000
     17 HAE          3.6840    -0.0000    -2.4730 ha         1 ZC3       0.114000
     18 HAH         -2.5790     0.0330    -0.5050 hn         1 ZC3       0.180500
     19 HAA1        -4.2390    -0.0150    -3.7830 hc         1 ZC3       0.028367
     20 HAA2        -4.4240    -0.8770    -2.2490 hc         1 ZC3       0.028367
     21 HAA3        -4.4210     0.8920    -2.2760 hc         1 ZC3       0.028367
@<TRIPOS>BOND
     1     1     2 1   
     2     1    10 2   
     3     2     3 ar  
     4     2     8 ar  
     5     3     4 ar  
     6     3    15 1   
     7     4     5 1   
     8     4     6 ar  
     9     6     7 ar  
    10     6    16 1   
    11     7     8 ar  
    12     7    17 1   
    13     8     9 1   
    14     9    10 1   
    15    10    11 1   
    16    11    12 1   
    17    11    18 1   
    18    12    13 2   
    19    12    14 1   
    20    14    19 1   
    21    14    20 1   
    22    14    21 1   
@<TRIPOS>SUBSTRUCTURE
     1 ZC3         1 TEMP              0 ****  ****    0 ROOT
