@<TRIPOS>MOLECULE
molecule
   21    22     1     0     0
SMALL
bcc


@<TRIPOS>ATOM
      1 NAG          0.0000     0.0000     0.0000 nc         1 ZC3      -0.645100
      2 CAM          1.3480     0.0000     0.0000 ca         1 ZC3       0.172400
      3 CAF          2.2310     0.0000     1.1020 ca         1 ZC3      -0.131000
      4 CAK          3.5890    -0.0000     0.9030 ca         1 ZC3       0.139900
      5 FAC          4.4220     0.0000     1.9680 f          1 ZC3      -0.138900
      6 CAD          4.1160    -0.0000    -0.3820 ca         1 ZC3      -0.168000
      7 CAE          3.2730    -0.0000    -1.4710 ca         1 ZC3      -0.052000
      8 CAN          1.8920    -0.0000    -1.2870 ca         1 ZC3      -0.119100
      9 SAI          0.5680    -0.0000    -2.4500 ss         1 ZC3      -0.005100
     10 CAL         -0.6020     0.0000    -1.1380 cd         1 ZC3       0.471800
     11 NAH         -1.9780     0.0000    -1.3050 ns         1 ZC3      -0.450400
     12 CAJ         -2.5060     0.0000    -2.5450 c          1 ZC3       0.656100
     13 OAB         -1.7790     0.0000    -3.5150 o          1 ZC3      -0.574100
     14 CAA         -4.0030     0.0000    -2.7260 c3         1 ZC3      -0.165100
     15 HAF          1.8340     0.0000     2.1100 ha         1 ZC3       0.158000
     16 HAD          5.1900    -0.0000    -0.5280 ha         1 ZC3       0.149000
     17 HAE          3.6840    -0.0000    -2.4730 ha         1 ZC3       0.141000
     18 HAH         -2.5790     0.0330    -0.5050 hn         1 ZC3       0.347500
     19 HAA1        -4.2390    -0.0150    -3.7830 hc         1 ZC3       0.070367
     20 HAA2        -4.4240    -0.8770    -2.2490 hc         1 ZC3       0.070367
     21 HAA3        -4.4210     0.8920    -2.2760 hc         1 ZC3       0.070367
@<TRIPOS>BOND
     1     1     2 1
     2     1    10 2
     3     2     3 ar
     4     2     8 ar
     5     3     4 ar
     6     4     5 1
     7     4     6 ar
     8     6     7 ar
     9     7     8 ar
    10     8     9 1
    11     9    10 1
    12    10    11 1
    13    11    12 1
    14    12    13 2
    15    12    14 1
    16     3    15 1
    17     6    16 1
    18     7    17 1
    19    11    18 1
    20    14    19 1
    21    14    20 1
    22    14    21 1
@<TRIPOS>SUBSTRUCTURE
     1 ZC3         1 TEMP              0 ****  ****    0 ROOT
