@<TRIPOS>MOLECULE
molecule
   23    24     1     0     0
SMALL
bcc


@<TRIPOS>ATOM
      1 C1           0.0000     0.0000     0.0000 ca         1 ZCW      -0.098800
      2 C2           1.3970     0.0000     0.0000 ca         1 ZCW      -0.078000
      3 C3           2.0750     0.0000     1.1860 ca         1 ZCW      -0.157000
      4 C4           1.3870    -0.0010     2.3920 ca         1 ZCW      -0.108000
      5 C5           0.0100    -0.0020     2.4150 ca         1 ZCW      -0.144000
      6 C6          -0.7010    -0.0010     1.2200 ca         1 ZCW      -0.038200
      7 N1          -2.0440    -0.0010     0.9150 na         1 ZCW      -0.183400
      8 C7          -2.2130     0.0010    -0.4430 cc         1 ZCW      -0.095100
      9 C8          -1.0180     0.0060    -1.0530 cd         1 ZCW      -0.158400
     10 C9          -0.7700     0.0160    -2.5400 c3         1 ZCW      -0.000200
     11 C10         -0.5620    -1.4180    -3.0310 c3         1 ZCW       0.141400
     12 O1          -0.3260    -1.4100    -4.4400 oh         1 ZCW      -0.616800
     13 H21          1.9400     0.0010    -0.9370 ha         1 ZCW       0.132000
     14 H31          3.1590     0.0010     1.1850 ha         1 ZCW       0.129000
     15 H41          1.9380    -0.0010     3.3250 ha         1 ZCW       0.129000
     16 H51         -0.5180    -0.0020     3.3610 ha         1 ZCW       0.125000
     17 H11N        -2.7870    -0.0050     1.5860 hn         1 ZCW       0.295700
     18 H71         -3.1700    -0.0020    -0.9500 h4         1 ZCW       0.166000
     19 H91          0.1150     0.6030    -2.7550 hc         1 ZCW       0.057200
     20 H92         -1.6230     0.4510    -3.0450 hc         1 ZCW       0.057200
     21 H101         0.2920    -1.8530    -2.5250 h1         1 ZCW       0.022700
     22 H102        -1.4470    -2.0050    -2.8160 h1         1 ZCW       0.022700
     23 H1O         -0.2690    -2.2970    -4.7550 ho         1 ZCW       0.401000
@<TRIPOS>BOND
     1     1     2 ar
     2     1     6 ar
     3     1     9 1
     4     2     3 ar
     5     3     4 ar
     6     4     5 ar
     7     5     6 ar
     8     6     7 1
     9     7     8 1
    10     8     9 2
    11     9    10 1
    12    10    11 1
    13    11    12 1
    14     2    13 1
    15     3    14 1
    16     4    15 1
    17     5    16 1
    18     7    17 1
    19     8    18 1
    20    10    19 1
    21    10    20 1
    22    11    21 1
    23    11    22 1
    24    12    23 1
@<TRIPOS>SUBSTRUCTURE
     1 ZCW         1 TEMP              0 ****  ****    0 ROOT
