@<TRIPOS>MOLECULE
ZD2
   27    28     1     0     0
SMALL
bcc


@<TRIPOS>ATOM
      1 O            0.0000     0.0000     0.0000 o          1 ZD2      -0.883300
      2 C4'          1.2080     0.0000     0.0000 c          1 ZD2       0.952600
      3 OXT          1.8790     0.0000     1.1620 o          1 ZD2      -0.883300
      4 C3'          1.9620    -0.0080    -1.3050 c3         1 ZD2       0.083100
      5 O3'          1.0370    -0.1300    -2.3880 oh         1 ZD2      -0.600800
      6 C2'          2.7450     1.2990    -1.4490 c3         1 ZD2      -0.033400
      7 C1'          3.6060     1.2410    -2.7120 c3         1 ZD2      -0.056700
      8 N9           4.3570     2.4920    -2.8490 na         1 ZD2       0.237000
      9 C4           5.5610     2.7860    -2.2600 ca         1 ZD2       0.225800
     10 C5           5.8880     4.0870    -2.6760 ca         1 ZD2      -0.185200
     11 N7           4.8870     4.5110    -3.4830 nc         1 ZD2      -0.520100
     12 C8           3.9900     3.5750    -3.5920 cd         1 ZD2       0.262700
     13 N3           6.3910     2.1380    -1.4490 nb         1 ZD2      -0.587000
     14 C2           7.5070     2.7050    -1.0410 ca         1 ZD2       0.619900
     15 N1           7.8580     3.9250    -1.4050 nb         1 ZD2      -0.672000
     16 C6           7.0900     4.6490    -2.2140 ca         1 ZD2       0.581200
     17 N6           7.4660     5.9270    -2.5900 nv         1 ZD2      -0.645500
     18 H2           2.6500    -0.8440    -1.3210 h1         1 ZD2      -0.007300
     19 H3           0.8470    -1.0410    -2.5370 ho         1 ZD2       0.378000
     20 H4           3.3810     1.4360    -0.5830 hc         1 ZD2       0.041700
     21 H5           2.0520     2.1290    -1.5220 hc         1 ZD2       0.041700
     22 H6           2.9700     1.1060    -3.5770 h1         1 ZD2       0.038700
     23 H7           4.2980     0.4110    -2.6390 h1         1 ZD2       0.038700
     24 H8           3.0860     3.6450    -4.1850 h5         1 ZD2       0.032800
     25 H9           8.1620     2.1500    -0.3810 h5         1 ZD2      -0.005900
     26 H10          7.1980     6.7130    -2.0310 hn         1 ZD2       0.273800
     27 H11          8.0310     6.0630    -3.4050 hn         1 ZD2       0.273800
@<TRIPOS>BOND
     1     1     2 1   
     2     2     3 1   
     3     2     4 1   
     4     4     5 1   
     5     4     6 1   
     6     4    18 1   
     7     5    19 1   
     8     6     7 1   
     9     6    20 1   
    10     6    21 1   
    11     7     8 1   
    12     7    22 1   
    13     7    23 1   
    14     8     9 1   
    15     8    12 1   
    16     9    10 ar  
    17     9    13 ar  
    18    10    11 1   
    19    10    16 ar  
    20    11    12 2   
    21    12    24 1   
    22    13    14 ar  
    23    14    15 ar  
    24    14    25 1   
    25    15    16 ar  
    26    16    17 1   
    27    17    26 1   
    28    17    27 1   
@<TRIPOS>SUBSTRUCTURE
     1 ZD2         1 TEMP              0 ****  ****    0 ROOT
