@<TRIPOS>MOLECULE
molecule
   27    28     1     0     0
SMALL
bcc


@<TRIPOS>ATOM
      1 O            0.0000     0.0000     0.0000 o          1 ZD2      -0.833800
      2 C4'          1.2080     0.0000     0.0000 c          1 ZD2       0.871600
      3 OXT          1.8790     0.0000     1.1620 o          1 ZD2      -0.833800
      4 C3'          1.9620    -0.0080    -1.3050 c3         1 ZD2       0.038100
      5 O3'          1.0370    -0.1300    -2.3880 oh         1 ZD2      -0.622800
      6 C2'          2.7450     1.2990    -1.4490 c3         1 ZD2      -0.077400
      7 C1'          3.6060     1.2410    -2.7120 c3         1 ZD2       0.034300
      8 N9           4.3570     2.4920    -2.8490 na         1 ZD2      -0.235000
      9 C4           5.5610     2.7860    -2.2600 ca         1 ZD2       0.442800
     10 C5           5.8880     4.0870    -2.6760 ca         1 ZD2      -0.161200
     11 N7           4.8870     4.5110    -3.4830 nc         1 ZD2      -0.605100
     12 C8           3.9900     3.5750    -3.5920 cd         1 ZD2       0.436700
     13 N3           6.3910     2.1380    -1.4490 nb         1 ZD2      -0.731000
     14 C2           7.5070     2.7050    -1.0410 ca         1 ZD2       0.688900
     15 N1           7.8580     3.9250    -1.4050 nb         1 ZD2      -0.786000
     16 C6           7.0900     4.6490    -2.2140 ca         1 ZD2       0.759200
     17 N6           7.4660     5.9270    -2.5900 nv         1 ZD2      -1.074500
     18 H2           2.6500    -0.8440    -1.3210 h1         1 ZD2       0.018700
     19 H3           0.8470    -1.0410    -2.5370 ho         1 ZD2       0.390000
     20 H4           3.3810     1.4360    -0.5830 hc         1 ZD2       0.071700
     21 H5           2.0520     2.1290    -1.5220 hc         1 ZD2       0.071700
     22 H6           2.9700     1.1060    -3.5770 h1         1 ZD2       0.065200
     23 H7           4.2980     0.4110    -2.6390 h1         1 ZD2       0.065200
     24 H8           3.0860     3.6450    -4.1850 h5         1 ZD2       0.079800
     25 H9           8.1620     2.1500    -0.3810 h5         1 ZD2       0.055100
     26 H10          7.1980     6.7130    -2.0310 hn         1 ZD2       0.435800
     27 H11          8.0310     6.0630    -3.4050 hn         1 ZD2       0.435800
@<TRIPOS>BOND
     1    17    16 1
     2    11    12 2
     3    11    10 1
     4    12     8 1
     5    16    10 ar
     6    16    15 ar
     7    10     9 ar
     8     8     9 1
     9     8     7 1
    10    15    14 ar
    11     9    13 ar
    12     7     6 1
    13    14    13 ar
    14     4     6 1
    15     4     2 1
    16     4     5 1
    17     1     2 1
    18     2     3 1
    19     4    18 1
    20     5    19 1
    21     6    20 1
    22     6    21 1
    23     7    22 1
    24     7    23 1
    25    12    24 1
    26    14    25 1
    27    17    26 1
    28    17    27 1
@<TRIPOS>SUBSTRUCTURE
     1 ZD2         1 TEMP              0 ****  ****    0 ROOT
