@<TRIPOS>MOLECULE
ZD6
   54    57     1     0     0
SMALL
bcc


@<TRIPOS>ATOM
      1 CAK          0.0000     0.0000     0.0000 c3         1 ZD6      -0.022900
      2 CAM          1.5300     0.0000     0.0000 c3         1 ZD6       0.157300
      3 NBD          2.0210     0.0000     1.3840 n3         1 ZD6      -0.545600
      4 CAB          3.4830    -0.1400     1.4230 c3         1 ZD6       0.188100
      5 CAN          1.5880     1.2060     2.1010 c3         1 ZD6       0.157300
      6 CAL          0.0590     1.2420     2.1640 c3         1 ZD6      -0.022900
      7 CBC         -0.5050     1.2410     0.7410 c3         1 ZD6      -0.057700
      8 CAO         -2.0340     1.2160     0.7980 c3         1 ZD6       0.199400
      9 OAT         -2.5090     2.4290     1.3840 os         1 ZD6      -0.288900
     10 CAY         -3.8550     2.5680     1.5090 ca         1 ZD6       0.171100
     11 CAI         -4.6870     1.5580     1.0820 ca         1 ZD6      -0.261300
     12 CAX         -4.3810     3.7370     2.0790 ca         1 ZD6       0.128100
     13 OAS         -3.5390     4.7190     2.4980 os         1 ZD6      -0.289900
     14 CAA         -4.1360     5.8840     3.0690 c3         1 ZD6       0.240700
     15 CAJ         -5.7300     3.9000     2.2150 ca         1 ZD6      -0.172000
     16 C5          -6.5980     2.8900     1.7830 ca         1 ZD6      -0.303600
     17 C4          -6.0730     1.7040     1.2120 ca         1 ZD6       0.452600
     18 N3          -6.9270     0.7490     0.8120 nb         1 ZD6      -0.666000
     19 C2          -8.2210     0.9140     0.9470 ca         1 ZD6       0.670900
     20 N1          -8.7570     2.0040     1.4740 nb         1 ZD6      -0.719000
     21 C6          -8.0030     3.0080     1.9030 ca         1 ZD6       0.537200
     22 NAR         -8.5750     4.1360     2.4550 nu         1 ZD6      -0.268300
     23 CAW         -9.9540     4.1790     2.6910 ca         1 ZD6      -0.020400
     24 CAF        -10.6860     3.0000     2.7490 ca         1 ZD6      -0.119000
     25 CAE        -12.0470     3.0450     2.9810 ca         1 ZD6      -0.065000
     26 CAU        -12.6820     4.2610     3.1550 ca         1 ZD6       0.030100
     27 Br         -14.5450     4.3160     3.4730 br         1 ZD6      -0.122100
     28 CAH        -11.9570     5.4380     3.0970 ca         1 ZD6      -0.091000
     29 CAV        -10.5930     5.4000     2.8710 ca         1 ZD6       0.056900
     30 FAC         -9.8850     6.5490     2.8190 f          1 ZD6      -0.128900
     31 H1          -0.3600     0.0180    -1.0210 hc         1 ZD6       0.024950
     32 H2          -0.3610    -0.8900     0.5010 hc         1 ZD6       0.024950
     33 H3           1.8900    -0.8860    -0.5090 h1         1 ZD6       0.008700
     34 H4           1.8900     0.8860    -0.5090 h1         1 ZD6       0.008700
     35 H6           3.7720    -1.0550     0.9210 h1         1 ZD6      -0.000300
     36 H7           3.9400     0.7060     0.9250 h1         1 ZD6      -0.000300
     37 H8           3.8150    -0.1740     2.4540 h1         1 ZD6      -0.000300
     38 H9           1.9470     2.0840     1.5790 h1         1 ZD6       0.008700
     39 H10          1.9880     1.1890     3.1080 h1         1 ZD6       0.008700
     40 H11         -0.3000     0.3680     2.6940 hc         1 ZD6       0.024950
     41 H12         -0.2590     2.1400     2.6780 hc         1 ZD6       0.024950
     42 H13         -0.1720     2.1310     0.2210 hc         1 ZD6       0.037700
     43 H14         -2.4310     1.1210    -0.2060 h1         1 ZD6       0.009200
     44 H15         -2.3590     0.3740     1.3960 h1         1 ZD6       0.009200
     45 H16         -4.2800     0.7160     0.5340 ha         1 ZD6       0.144000
     46 H17         -4.7860     6.3520     2.3400 h1         1 ZD6      -0.001300
     47 H18         -3.3590     6.5810     3.3610 h1         1 ZD6      -0.001300
     48 H19         -4.7150     5.6040     3.9410 h1         1 ZD6      -0.001300
     49 H20         -6.1270     4.8060     2.6570 ha         1 ZD6       0.125000
     50 H21         -8.8810     0.1230     0.6120 h5         1 ZD6      -0.003900
     51 H22         -8.0040     4.9260     2.6840 hn         1 ZD6       0.296800
     52 H23        -10.1900     2.0470     2.6130 ha         1 ZD6       0.177000
     53 H24        -12.6180     2.1250     3.0270 ha         1 ZD6       0.120000
     54 H25        -12.4570     6.3890     3.2350 ha         1 ZD6       0.131000
@<TRIPOS>BOND
     1     1     2 1   
     2     1     7 1   
     3     1    31 1   
     4     1    32 1   
     5     2     3 1   
     6     2    33 1   
     7     2    34 1   
     8     3     4 1   
     9     3     5 1   
    10     4    35 1   
    11     4    36 1   
    12     4    37 1   
    13     5     6 1   
    14     5    38 1   
    15     5    39 1   
    16     6     7 1   
    17     6    40 1   
    18     6    41 1   
    19     7     8 1   
    20     7    42 1   
    21     8     9 1   
    22     8    43 1   
    23     8    44 1   
    24     9    10 1   
    25    10    11 ar  
    26    10    12 ar  
    27    11    17 ar  
    28    11    45 1   
    29    12    13 1   
    30    12    15 ar  
    31    13    14 1   
    32    14    46 1   
    33    14    47 1   
    34    14    48 1   
    35    15    16 ar  
    36    15    49 1   
    37    16    17 ar  
    38    16    21 ar  
    39    17    18 ar  
    40    18    19 ar  
    41    19    20 ar  
    42    19    50 1   
    43    20    21 ar  
    44    21    22 1   
    45    22    23 1   
    46    22    51 1   
    47    23    24 ar  
    48    23    29 ar  
    49    24    25 ar  
    50    24    52 1   
    51    25    26 ar  
    52    25    53 1   
    53    26    27 1   
    54    26    28 ar  
    55    28    29 ar  
    56    28    54 1   
    57    29    30 1   
@<TRIPOS>SUBSTRUCTURE
     1 ZD6         1 TEMP              0 ****  ****    0 ROOT
