@<TRIPOS>MOLECULE
molecule
   59    63     1     0     0
SMALL
bcc


@<TRIPOS>ATOM
      1 C4           0.0000     0.0000     0.0000 ca         1 ZD7       0.458600
      2 C3           2.0200     0.0000     1.1200 ca         1 ZD7       0.466600
      3 C2           3.5260    -0.0080     1.0600 c3         1 ZD7      -0.132700
      4 C1           4.0430     1.4320     1.0350 c3         1 ZD7      -0.087100
      5 O1          -0.5800     0.2310     5.8100 o          1 ZD7      -0.625500
      6 N1           1.3200     0.0000     0.0000 nb         1 ZD7      -0.715000
      7 C10          2.1810    -0.0150     3.6210 c3         1 ZD7      -0.029100
      8 C11          1.4320     0.7600     4.7060 c3         1 ZD7      -0.150400
      9 C12         -0.0100     0.3260     4.7440 c          1 ZD7       0.709500
     10 C13         -2.1050    -0.2510     3.6560 c3         1 ZD7       0.146300
     11 C14         -2.3100    -1.7430     3.7150 ca         1 ZD7      -0.101300
     12 C15         -2.4990    -2.4590     2.5470 ca         1 ZD7      -0.121000
     13 C16         -2.6880    -3.8250     2.5940 ca         1 ZD7      -0.071500
     14 C17         -2.3040    -2.3910     4.9370 ca         1 ZD7      -0.121000
     15 C18         -2.4900    -3.7570     4.9980 ca         1 ZD7      -0.071500
     16 C19         -2.6870    -4.4830     3.8230 cp         1 ZD7      -0.069000
     17 N2          -0.6710     0.0420     3.6070 n          1 ZD7      -0.364000
     18 C20         -2.8880    -5.9510     3.8820 cp         1 ZD7       0.027000
     19 C21         -3.9550    -6.5380     3.2070 ca         1 ZD7      -0.122000
     20 C22         -4.1390    -7.9050     3.2640 ca         1 ZD7      -0.104000
     21 C23         -3.2680    -8.7000     3.9900 ca         1 ZD7      -0.132000
     22 C24         -2.2050    -8.1360     4.6640 ca         1 ZD7      -0.110000
     23 C25         -2.0000    -6.7570     4.6130 ca         1 ZD7      -0.143500
     24 C26         -0.8590    -6.1480     5.3290 cc         1 ZD7       0.477000
     25 N3           0.0710    -6.8020     6.0690 na         1 ZD7      -0.190400
     26 N4           0.9380    -5.8000     6.5400 nc         1 ZD7      -0.213800
     27 C5          -0.7430    -0.0130    -1.3110 c3         1 ZD7      -0.126700
     28 N5           0.4990    -4.6790     6.0800 nd         1 ZD7      -0.007000
     29 C6          -0.2750     1.1600    -2.1740 c3         1 ZD7      -0.083100
     30 N6          -0.5500    -4.8690     5.3640 nd         1 ZD7      -0.404000
     31 C7          -0.7080     0.0070     1.1860 ca         1 ZD7      -0.304300
     32 C8          -0.0050     0.0270     2.3860 ca         1 ZD7       0.121600
     33 C9           1.3850     0.0070     2.3440 ca         1 ZD7      -0.255600
     34 H1           3.9200    -0.5180     1.9310 hc         1 ZD7       0.059200
     35 H2           3.8490    -0.5230     0.1630 hc         1 ZD7       0.059200
     36 H3           3.2640     2.1010     1.3810 hc         1 ZD7       0.038033
     37 H4           4.9060     1.5170     1.6830 hc         1 ZD7       0.038033
     38 H5           4.3230     1.6970     0.0220 hc         1 ZD7       0.038033
     39 H6           3.1460     0.4460     3.4520 hc         1 ZD7       0.064200
     40 H7           2.3170    -1.0410     3.9420 hc         1 ZD7       0.064200
     41 H8           1.8910     0.5640     5.6680 hc         1 ZD7       0.077700
     42 H9           1.4820     1.8200     4.4880 hc         1 ZD7       0.077700
     43 H10         -2.5850     0.1450     2.7690 h1         1 ZD7       0.070700
     44 H11         -2.5390     0.2080     4.5360 h1         1 ZD7       0.070700
     45 H12         -2.4990    -1.9460     1.5930 ha         1 ZD7       0.141000
     46 H13         -2.8380    -4.3850     1.6790 ha         1 ZD7       0.131500
     47 H14         -2.1510    -1.8260     5.8480 ha         1 ZD7       0.141000
     48 H15         -2.4870    -4.2630     5.9550 ha         1 ZD7       0.131500
     49 H16         -4.6410    -5.9230     2.6370 ha         1 ZD7       0.146000
     50 H17         -4.9700    -8.3590     2.7380 ha         1 ZD7       0.137000
     51 H18         -3.4230    -9.7720     4.0300 ha         1 ZD7       0.137000
     52 H19         -1.5260    -8.7640     5.2280 ha         1 ZD7       0.123000
     53 H20          0.1270    -7.7860     6.2430 hn         1 ZD7       0.336700
     54 H21         -1.8070     0.0780    -1.1240 hc         1 ZD7       0.051700
     55 H22         -0.5470    -0.9440    -1.8280 hc         1 ZD7       0.051700
     56 H23          0.7270     0.9640    -2.5370 hc         1 ZD7       0.039367
     57 H24         -0.2740     2.0670    -1.5820 hc         1 ZD7       0.039367
     58 H25         -0.9470     1.2790    -3.0160 hc         1 ZD7       0.039367
     59 H26         -1.7910     0.0070     1.1810 ha         1 ZD7       0.143000
@<TRIPOS>BOND
     1     5     9 2
     2     8     7 1
     3     8     9 1
     4     7    33 1
     5     9    17 1
     6    17    10 1
     7    17    32 1
     8    33    32 ar
     9    33     2 ar
    10     3     4 1
    11     3     2 1
    12    26    28 2
    13    26    25 1
    14    10    11 1
    15    32    31 ar
    16     2     6 ar
    17    28    30 1
    18    25    24 1
    19    11    14 ar
    20    11    12 ar
    21    14    15 ar
    22     6     1 ar
    23    12    13 ar
    24    31     1 ar
    25    30    24 2
    26    24    23 1
    27     1    27 1
    28    15    16 ar
    29    13    16 ar
    30    16    18 1
    31    27    29 1
    32    23    18 ar
    33    23    22 ar
    34    18    19 ar
    35    22    21 ar
    36    19    20 ar
    37    21    20 ar
    38     3    34 1
    39     3    35 1
    40     4    36 1
    41     4    37 1
    42     4    38 1
    43     7    39 1
    44     7    40 1
    45     8    41 1
    46     8    42 1
    47    10    43 1
    48    10    44 1
    49    12    45 1
    50    13    46 1
    51    14    47 1
    52    15    48 1
    53    19    49 1
    54    20    50 1
    55    21    51 1
    56    22    52 1
    57    25    53 1
    58    27    54 1
    59    27    55 1
    60    29    56 1
    61    29    57 1
    62    29    58 1
    63    31    59 1
@<TRIPOS>SUBSTRUCTURE
     1 ZD7         1 TEMP              0 ****  ****    0 ROOT
