@<TRIPOS>MOLECULE
ZD7
   59    63     1     0     0
SMALL
bcc


@<TRIPOS>ATOM
      1 C4           0.0000     0.0000     0.0000 ca         1 ZD7       0.406600
      2 C3           2.0200     0.0000     1.1200 ca         1 ZD7       0.416600
      3 C2           3.5260    -0.0080     1.0600 c3         1 ZD7      -0.082700
      4 C1           4.0430     1.4320     1.0350 c3         1 ZD7       0.009900
      5 O1          -0.5800     0.2310     5.8100 o          1 ZD7      -0.664500
      6 N1           1.3200     0.0000     0.0000 nb         1 ZD7      -0.592000
      7 C10          2.1810    -0.0150     3.6210 c3         1 ZD7       0.036900
      8 C11          1.4320     0.7600     4.7060 c3         1 ZD7      -0.093400
      9 C12         -0.0100     0.3260     4.7440 c          1 ZD7       0.618500
     10 C13         -2.1050    -0.2510     3.6560 c3         1 ZD7       0.080300
     11 C14         -2.3100    -1.7430     3.7150 ca         1 ZD7      -0.111300
     12 C15         -2.4990    -2.4590     2.5470 ca         1 ZD7      -0.099500
     13 C16         -2.6880    -3.8250     2.5940 ca         1 ZD7      -0.048000
     14 C17         -2.3040    -2.3910     4.9370 ca         1 ZD7      -0.099500
     15 C18         -2.4900    -3.7570     4.9980 ca         1 ZD7      -0.048000
     16 C19         -2.6870    -4.4830     3.8230 cp         1 ZD7      -0.069000
     17 N2          -0.6710     0.0420     3.6070 n          1 ZD7       0.033000
     18 C20         -2.8880    -5.9510     3.8820 cp         1 ZD7       0.039000
     19 C21         -3.9550    -6.5380     3.2070 ca         1 ZD7      -0.098000
     20 C22         -4.1390    -7.9050     3.2640 ca         1 ZD7      -0.075000
     21 C23         -3.2680    -8.7000     3.9900 ca         1 ZD7      -0.104000
     22 C24         -2.2050    -8.1360     4.6640 ca         1 ZD7      -0.092000
     23 C25         -2.0000    -6.7570     4.6130 ca         1 ZD7      -0.144500
     24 C26         -0.8590    -6.1480     5.3290 cc         1 ZD7       0.313000
     25 N3           0.0710    -6.8020     6.0690 na         1 ZD7       0.288600
     26 N4           0.9380    -5.8000     6.5400 nc         1 ZD7      -0.398800
     27 C5          -0.7430    -0.0130    -1.3110 c3         1 ZD7      -0.069700
     28 N5           0.4990    -4.6790     6.0800 nd         1 ZD7       0.035000
     29 C6          -0.2750     1.1600    -2.1740 c3         1 ZD7       0.010900
     30 N6          -0.5500    -4.8690     5.3640 nd         1 ZD7      -0.389000
     31 C7          -0.7080     0.0070     1.1860 ca         1 ZD7      -0.282300
     32 C8          -0.0050     0.0270     2.3860 ca         1 ZD7      -0.017400
     33 C9           1.3850     0.0070     2.3440 ca         1 ZD7      -0.250600
     34 H1           3.9200    -0.5180     1.9310 hc         1 ZD7       0.027700
     35 H2           3.8490    -0.5230     0.1630 hc         1 ZD7       0.027700
     36 H3           3.2640     2.1010     1.3810 hc         1 ZD7       0.004367
     37 H4           4.9060     1.5170     1.6830 hc         1 ZD7       0.004367
     38 H5           4.3230     1.6970     0.0220 hc         1 ZD7       0.004367
     39 H6           3.1460     0.4460     3.4520 hc         1 ZD7       0.035200
     40 H7           2.3170    -1.0410     3.9420 hc         1 ZD7       0.035200
     41 H8           1.8910     0.5640     5.6680 hc         1 ZD7       0.042700
     42 H9           1.4820     1.8200     4.4880 hc         1 ZD7       0.042700
     43 H10         -2.5850     0.1450     2.7690 h1         1 ZD7       0.043200
     44 H11         -2.5390     0.2080     4.5360 h1         1 ZD7       0.043200
     45 H12         -2.4990    -1.9460     1.5930 ha         1 ZD7       0.118000
     46 H13         -2.8380    -4.3850     1.6790 ha         1 ZD7       0.105500
     47 H14         -2.1510    -1.8260     5.8480 ha         1 ZD7       0.118000
     48 H15         -2.4870    -4.2630     5.9550 ha         1 ZD7       0.105500
     49 H16         -4.6410    -5.9230     2.6370 ha         1 ZD7       0.118000
     50 H17         -4.9700    -8.3590     2.7380 ha         1 ZD7       0.106000
     51 H18         -3.4230    -9.7720     4.0300 ha         1 ZD7       0.108000
     52 H19         -1.5260    -8.7640     5.2280 ha         1 ZD7       0.094000
     53 H20          0.1270    -7.7860     6.2430 hn         1 ZD7       0.173700
     54 H21         -1.8070     0.0780    -1.1240 hc         1 ZD7       0.018700
     55 H22         -0.5470    -0.9440    -1.8280 hc         1 ZD7       0.018700
     56 H23          0.7270     0.9640    -2.5370 hc         1 ZD7       0.005367
     57 H24         -0.2740     2.0670    -1.5820 hc         1 ZD7       0.005367
     58 H25         -0.9470     1.2790    -3.0160 hc         1 ZD7       0.005367
     59 H26         -1.7910     0.0070     1.1810 ha         1 ZD7       0.134000
@<TRIPOS>BOND
     1     1     6 ar  
     2     1    27 1   
     3     1    31 ar  
     4     2     3 1   
     5     2     6 ar  
     6     2    33 ar  
     7     3     4 1   
     8     3    34 1   
     9     3    35 1   
    10     4    36 1   
    11     4    37 1   
    12     4    38 1   
    13     5     9 2   
    14     7     8 1   
    15     7    33 1   
    16     7    39 1   
    17     7    40 1   
    18     8     9 1   
    19     8    41 1   
    20     8    42 1   
    21     9    17 1   
    22    10    11 1   
    23    10    17 1   
    24    10    43 1   
    25    10    44 1   
    26    11    12 ar  
    27    11    14 ar  
    28    12    13 ar  
    29    12    45 1   
    30    13    16 ar  
    31    13    46 1   
    32    14    15 ar  
    33    14    47 1   
    34    15    16 ar  
    35    15    48 1   
    36    16    18 1   
    37    17    32 1   
    38    18    19 ar  
    39    18    23 ar  
    40    19    20 ar  
    41    19    49 1   
    42    20    21 ar  
    43    20    50 1   
    44    21    22 ar  
    45    21    51 1   
    46    22    23 ar  
    47    22    52 1   
    48    23    24 1   
    49    24    25 1   
    50    24    30 2   
    51    25    26 1   
    52    25    53 1   
    53    26    28 2   
    54    27    29 1   
    55    27    54 1   
    56    27    55 1   
    57    28    30 1   
    58    29    56 1   
    59    29    57 1   
    60    29    58 1   
    61    31    32 ar  
    62    31    59 1   
    63    32    33 ar  
@<TRIPOS>SUBSTRUCTURE
     1 ZD7         1 TEMP              0 ****  ****    0 ROOT
