@<TRIPOS>MOLECULE
molecule
   33    34     1     0     0
SMALL
bcc


@<TRIPOS>ATOM
      1 C1           0.0000     0.0000     0.0000 c          1 ZD9       0.703100
      2 N2           1.3540     0.0000     0.0000 ns         1 ZD9      -0.471400
      3 C3           2.0450     0.0000     1.1700 cc         1 ZD9       0.493900
      4 N4           1.4750    -0.0000     2.3370 nd         1 ZD9      -0.650100
      5 C5           0.1260    -0.0000     2.4690 ca         1 ZD9       0.196400
      6 C6          -0.6760     0.0000     1.3050 ca         1 ZD9      -0.225600
      7 O7          -0.6320     0.0050    -1.0400 o          1 ZD9      -0.624500
      8 C8          -2.0660     0.0000     1.4150 ca         1 ZD9      -0.040000
      9 C9          -2.6470     0.0010     2.6640 ca         1 ZD9      -0.081300
     10 C10         -1.8620     0.0000     3.8090 ca         1 ZD9      -0.007300
     11 C11         -0.4880    -0.0010     3.7230 ca         1 ZD9      -0.137000
     12 C12         -4.1490     0.0010     2.7890 c3         1 ZD9       0.125100
     13 N13         -4.6160     1.3610     3.0680 n7         1 ZD9      -0.525800
     14 C14         -5.9400     1.6050     3.2210 c1         1 ZD9      -0.106200
     15 C15         -7.0890     1.7990     3.3610 c1         1 ZD9      -0.242100
     16 C16         -8.7920     2.2520     3.6390 c3         1 ZD9       0.036000
     17 C38         -2.5220     0.0010     5.1650 c3         1 ZD9      -0.061800
     18 C39          3.5510     0.0000     1.1100 c3         1 ZD9      -0.125400
     19 HN2          1.7940    -0.2610    -0.8610 hn         1 ZD9       0.335500
     20 H8          -2.6300    -0.0030     0.4910 ha         1 ZD9       0.156000
     21 H11          0.2150     0.3040     4.4880 ha         1 ZD9       0.158000
     22 H12         -4.7370    -0.6800     2.1850 h1         1 ZD9       0.082200
     23 H12A        -4.5200    -0.0120     3.8070 h1         1 ZD9       0.082200
     24 HN13        -4.5390     1.8470     2.1970 hn         1 ZD9       0.324800
     25 H16         -9.0570     1.2280     3.8700 hc         1 ZD9       0.082033
     26 H16A        -8.6570     3.1930     4.1580 hc         1 ZD9       0.082033
     27 H16B        -9.0420     2.0030     2.6150 hc         1 ZD9       0.082033
     28 H38         -2.7910     0.8670     5.7560 hc         1 ZD9       0.054033
     29 H38A        -1.6510    -0.3680     5.6920 hc         1 ZD9       0.054033
     30 H38B        -3.0630    -0.9360     5.1000 hc         1 ZD9       0.054033
     31 H39          3.8650    -0.2470     0.1030 hc         1 ZD9       0.065700
     32 H39A         3.9260    -0.6910     1.8550 hc         1 ZD9       0.065700
     33 H39B         3.8470     1.0410     1.0660 hc         1 ZD9       0.065700
@<TRIPOS>BOND
     1     7     1 2
     2     6     1 1
     3     1     2 1
     4     2     3 1
     5     2    19 1
     6     3     4 2
     7     3    18 1
     8     5     4 1
     9     6     5 ar
    10     5    11 ar
    11     8     6 ar
    12     8     9 ar
    13     8    20 1
    14    12     9 1
    15     9    10 ar
    16    10    17 1
    17    10    11 ar
    18    11    21 1
    19    13    12 1
    20    12    22 1
    21    12    23 1
    22    14    13 1
    23    13    24 1
    24    15    14 3
    25    16    15 1
    26    16    25 1
    27    16    26 1
    28    16    27 1
    29    17    28 1
    30    17    29 1
    31    17    30 1
    32    18    31 1
    33    18    32 1
    34    18    33 1
@<TRIPOS>SUBSTRUCTURE
     1 ZD9         1 TEMP              0 ****  ****    0 ROOT
