@<TRIPOS>MOLECULE
molecule
   62    65     1     0     0
SMALL
bcc


@<TRIPOS>ATOM
      1 CAE          0.0000     0.0000     0.0000 c3         1 ZDG       0.064400
      2 CAD          1.5300     0.0000     0.0000 c3         1 ZDG      -0.005300
      3 CAA          2.0210    -0.0010    -1.3870 c1         1 ZDG      -0.107100
      4 CAB          2.3940     0.0040    -2.5000 cg         1 ZDG      -0.086000
      5 CAC          2.8570    -0.2920    -3.8690 ca         1 ZDG       0.021000
      6 CAN          2.1660     0.0060    -4.9930 ca         1 ZDG      -0.100500
      7 CAM          2.8750    -0.4140    -6.3760 ca         1 ZDG      -0.098000
      8 CAJ          4.2260    -0.9890    -3.9890 ca         1 ZDG      -0.100500
      9 CAK          5.0330    -0.0870    -5.1010 ca         1 ZDG      -0.098000
     10 CAL          4.3340    -0.3970    -6.2090 ca         1 ZDG      -0.052000
     11 CAO          4.8270    -0.8890    -7.8500 cc         1 ZDG      -0.004300
     12 CAS          5.8360    -0.4230    -8.3810 cd         1 ZDG      -0.166600
     13 CBB          6.4020     0.9450    -8.1730 c3         1 ZDG      -0.073800
     14 NAP          4.6310    -2.1420    -8.3490 na         1 ZDG       0.194300
     15 CAT          3.4760    -3.1340    -8.3390 ca         1 ZDG      -0.040200
     16 CAY          2.6100    -3.1010    -9.2290 ca         1 ZDG       0.024400
     17 ClA          2.4770    -2.4640   -10.5340 cl         1 ZDG       0.108600
     18 CAX          1.6780    -4.1280    -8.9590 ca         1 ZDG      -0.162000
     19 CAW          1.7700    -5.2140    -7.6130 ca         1 ZDG      -0.006600
     20 ClB          0.7620    -6.6330    -7.3180 cl         1 ZDG      -0.079400
     21 CAV          2.8380    -4.9610    -6.8560 ca         1 ZDG      -0.104000
     22 CAU          3.5640    -4.1510    -7.0790 ca         1 ZDG      -0.052000
     23 NAQ          4.9840    -1.7540    -9.7340 nc         1 ZDG      -0.613800
     24 CAR          6.0870    -0.8110    -9.4790 cd         1 ZDG       0.393800
     25 CBC          7.1250    -0.7530   -10.4760 c          1 ZDG       0.560600
     26 OBE          7.8370     0.2620   -10.4010 o          1 ZDG      -0.553100
     27 NBD          7.4060    -1.4340   -11.8490 ns         1 ZDG      -0.437300
     28 NBF          8.4590    -1.2990   -12.7390 n3         1 ZDG      -0.497600
     29 CBG          9.2450    -2.4620   -12.7040 c3         1 ZDG       0.209800
     30 CBH         10.2930    -2.6040   -13.4370 c3         1 ZDG      -0.064400
     31 CBI         10.0940    -2.0040   -14.7190 c3         1 ZDG      -0.120400
     32 CBJ          9.5830    -0.5400   -14.4840 c3         1 ZDG      -0.064400
     33 CBK          8.2010    -0.7680   -14.0750 c3         1 ZDG       0.209800
     34 H1          -0.1560     0.7690    -0.7470 h1         1 ZDG       0.073200
     35 H2          -0.2670    -0.8600    -0.6030 h1         1 ZDG       0.073200
     36 H4           1.7070     0.8210     0.6850 hc         1 ZDG       0.073700
     37 H5           1.7590    -0.7650     0.7320 hc         1 ZDG       0.073700
     38 H6           1.1080     0.2320    -4.9340 ha         1 ZDG       0.141000
     39 H7           2.2230    -0.0540    -7.1630 ha         1 ZDG       0.162000
     40 H8           4.9660    -1.1390    -3.2120 ha         1 ZDG       0.141000
     41 H9           6.0140     0.0110    -5.5500 ha         1 ZDG       0.162000
     42 H10          7.3460     0.9250    -7.6410 hc         1 ZDG       0.052700
     43 H11          6.7020     1.5260    -9.0370 hc         1 ZDG       0.052700
     44 H12          5.8510     1.5430    -7.4580 hc         1 ZDG       0.052700
     45 H13          0.7550    -4.4100    -9.4500 ha         1 ZDG       0.159000
     46 H14          2.8470    -5.5690    -5.9600 ha         1 ZDG       0.147000
     47 H15          4.5860    -4.2640    -6.7380 ha         1 ZDG       0.145000
     48 H16          6.8970    -2.2960   -11.8300 hn         1 ZDG       0.259500
     49 H17          9.5410    -3.1370   -11.9100 h1         1 ZDG       0.031700
     50 H18          8.5190    -3.2580   -12.8120 h1         1 ZDG       0.031700
     51 H19         11.1220    -2.1320   -12.9240 hc         1 ZDG       0.051700
     52 H20         10.8530    -3.5220   -13.5690 hc         1 ZDG       0.051700
     53 H21         11.0850    -1.8180   -15.1150 hc         1 ZDG       0.034700
     54 H22          9.8340    -2.7640   -15.4460 hc         1 ZDG       0.034700
     55 H23         10.3890     0.1750   -14.3740 hc         1 ZDG       0.051700
     56 H24          9.6470    -0.3090   -15.5410 hc         1 ZDG       0.051700
     57 H25          7.3410    -1.3640   -14.3560 h1         1 ZDG       0.031700
     58 H26          7.8270     0.2240   -13.8540 h1         1 ZDG       0.031700
     59 O1          -0.4760     0.0000     1.3470 os         1 ZDG      -0.271000
     60 N1          -1.8880    -0.0000     1.4590 no         1 ZDG       0.319200
     61 O2          -2.5780    -0.0010     0.4560 o          1 ZDG      -0.160000
     62 O3          -2.4110    -0.0010     2.5590 o          1 ZDG      -0.160000
@<TRIPOS>BOND
     1    20    19 1
     2    19    21 ar
     3    19    18 ar
     4    21    22 ar
     5    18    16 ar
     6    22    15 ar
     7    16    15 ar
     8    16    17 1
     9    15    14 1
    10     2     3 1
    11     2     1 1
    12     3     4 3
    13     6     7 ar
    14     6     5 ar
    15    14    23 1
    16    14    11 1
    17     4     5 1
    18     7    10 ar
    19     5     8 ar
    20    23    24 2
    21    10    11 1
    22    10     9 ar
    23     8     9 ar
    24    11    12 2
    25    24    12 1
    26    24    25 1
    27    12    13 1
    28    27    25 1
    29    27    28 1
    30    33    28 1
    31    33    32 1
    32    25    26 2
    33    28    29 1
    34    29    30 1
    35    32    31 1
    36    31    30 1
    37     1    34 1
    38     1    35 1
    39     2    36 1
    40     2    37 1
    41     6    38 1
    42     7    39 1
    43     8    40 1
    44     9    41 1
    45    13    42 1
    46    13    43 1
    47    13    44 1
    48    18    45 1
    49    21    46 1
    50    22    47 1
    51    27    48 1
    52    29    49 1
    53    29    50 1
    54    30    51 1
    55    30    52 1
    56    31    53 1
    57    31    54 1
    58    32    55 1
    59    32    56 1
    60    33    57 1
    61    33    58 1
    62     1    59 1
    63    59    60 1
    64    60    61 1
    65    60    62 1
@<TRIPOS>SUBSTRUCTURE
     1 ZDG         1 TEMP              0 ****  ****    0 ROOT
