@<TRIPOS>MOLECULE
ZDP
   28    27     1     0     0
SMALL
bcc


@<TRIPOS>ATOM
      1 OAE        -0.1060    0.1070    0.3330 o         1 ZDP     -0.859300
      2 CAP         1.1180   -0.0710    0.0760 c         1 ZDP      0.889600
      3 OAG         1.5630   -0.2590   -1.0970 o         1 ZDP     -0.859300
      4 CAS         2.1220   -0.0970    1.2720 c3        1 ZDP      0.030500
      5 NAB         3.4470   -0.5940    0.9190 n3        1 ZDP     -0.898800
      6 CAK         2.1270    1.2850    1.9340 c3        1 ZDP     -0.070400
      7 CAJ         2.8370    1.2970    3.2740 c3        1 ZDP     -0.076400
      8 CAM         2.8570    2.6840    3.8830 c3        1 ZDP     -0.062400
      9 CAT         3.5170    2.7700    5.2730 c3        1 ZDP      0.037200
     10 NAC         2.8300    1.9270    6.2630 n3        1 ZDP     -0.887800
     11 CAQ         3.5180    4.2950    5.6810 c         1 ZDP      0.889600
     12 OAH         2.9560    4.6280    6.7680 o         1 ZDP     -0.855300
     13 OAF         4.0980    5.1190    4.9200 o         1 ZDP     -0.855300
     14 CAN         4.9910    2.3640    5.1660 c3        1 ZDP     -0.056100
     15 HAS         1.7060   -0.8360    2.0190 h1        1 ZDP      0.041700
     16 HAB1        3.3700   -1.0800    0.0400 hn        1 ZDP      0.326800
     17 HAB2        4.0610    0.1850    0.7620 hn        1 ZDP      0.326800
     18 HAK1        2.6030    2.0340    1.2490 hc        1 ZDP      0.039200
     19 HAK2        1.0560    1.5910    2.0690 hc        1 ZDP      0.039200
     20 HAJ1        2.3250    0.5780    3.9660 hc        1 ZDP      0.033200
     21 HAJ2        3.8900    0.9340    3.1470 hc        1 ZDP      0.033200
     22 HAM1        3.4180    3.3860    3.2110 hc        1 ZDP      0.039700
     23 HAM2        1.8060    3.0710    3.9580 hc        1 ZDP      0.039700
     24 HAC1        1.8430    1.9910    6.0920 hn        1 ZDP      0.328800
     25 HAC2        2.9930    2.3400    7.1680 hn        1 ZDP      0.328800
     26 HAN1        5.5070    2.5180    6.1440 hc        1 ZDP      0.018033
     27 HAN2        5.4800    3.0130    4.4010 hc        1 ZDP      0.018033
     28 HAN3        5.1010    1.2940    4.8710 hc        1 ZDP      0.018033
@<TRIPOS>BOND
     1    1    2 1
     2    2    3 1
     3    2    4 1
     4    4    5 1
     5    4    6 1
     6    4   15 1
     7    5   16 1
     8    5   17 1
     9    6    7 1
    10    6   18 1
    11    6   19 1
    12    7    8 1
    13    7   20 1
    14    7   21 1
    15    8    9 1
    16    8   22 1
    17    8   23 1
    18    9   10 1
    19    9   11 1
    20    9   14 1
    21   10   24 1
    22   10   25 1
    23   11   12 1
    24   11   13 1
    25   14   26 1
    26   14   27 1
    27   14   28 1
@<TRIPOS>SUBSTRUCTURE
     1 ZDP         1 TEMP              0 ****  ****    0 ROOT
