@<TRIPOS>MOLECULE
ZDR
   28    27     1     0     0
SMALL
bcc


@<TRIPOS>ATOM
      1 CAN         1.5750   -0.1480   -0.0760 c3        1 ZDR     -0.056100
      2 CAT         0.0530   -0.0360    0.0590 c3        1 ZDR      0.036200
      3 NAC        -0.3400   -0.1280    1.4730 n3        1 ZDR     -0.884800
      4 CAQ        -0.5510   -1.2120   -0.8050 c         1 ZDR      0.889600
      5 OAF        -1.3070   -2.0520   -0.2300 o         1 ZDR     -0.854300
      6 OAH        -0.2410   -1.2800   -2.0260 o         1 ZDR     -0.854300
      7 CAM        -0.4240    1.2780   -0.5920 c3        1 ZDR     -0.061400
      8 CAJ         0.0620    2.5410    0.0900 c3        1 ZDR     -0.075400
      9 CAK        -0.4780    3.7840   -0.5890 c3        1 ZDR     -0.073400
     10 CAS         0.0040    5.0840    0.0660 c3        1 ZDR      0.030500
     11 NAB        -0.4150    5.2520    1.4520 n3        1 ZDR     -0.899800
     12 CAP        -0.3970    6.2770   -0.8610 c         1 ZDR      0.891600
     13 OAE         0.1920    6.3850   -1.9730 o         1 ZDR     -0.858800
     14 OAG        -1.2730    7.0980   -0.4520 o         1 ZDR     -0.858800
     15 HAN1        2.0950    0.6710    0.4750 hc        1 ZDR      0.018700
     16 HAN2        1.8370   -0.0910   -1.1590 hc        1 ZDR      0.018700
     17 HAN3        1.9300   -1.1280    0.3250 hc        1 ZDR      0.018700
     18 HAC1       -0.3860   -1.1070    1.7040 hn        1 ZDR      0.327800
     19 HAC2       -1.2760    0.2280    1.5560 hn        1 ZDR      0.327800
     20 HAM1       -0.0760    1.2610   -1.6580 hc        1 ZDR      0.039200
     21 HAM2       -1.5460    1.2790   -0.6130 hc        1 ZDR      0.039200
     22 HAJ1        1.1830    2.5710    0.0720 hc        1 ZDR      0.032700
     23 HAJ2       -0.2460    2.5340    1.1680 hc        1 ZDR      0.032700
     24 HAK1       -0.1430    3.8080   -1.6590 hc        1 ZDR      0.038700
     25 HAK2       -1.5990    3.7550   -0.5900 hc        1 ZDR      0.038700
     26 HAS         1.1340    5.0610    0.0870 h1        1 ZDR      0.040700
     27 HAB1       -0.7190    6.2060    1.5720 hn        1 ZDR      0.327300
     28 HAB2       -1.2140    4.6710    1.6310 hn        1 ZDR      0.327300
@<TRIPOS>BOND
     1    1    2 1   
     2    1   15 1   
     3    1   16 1   
     4    1   17 1   
     5    2    3 1   
     6    2    4 1   
     7    2    7 1   
     8    3   18 1   
     9    3   19 1   
    10    4    5 1   
    11    4    6 1   
    12    7    8 1   
    13    7   20 1   
    14    7   21 1   
    15    8    9 1   
    16    8   22 1   
    17    8   23 1   
    18    9   10 1   
    19    9   24 1   
    20    9   25 1   
    21   10   11 1   
    22   10   12 1   
    23   10   26 1   
    24   11   27 1   
    25   11   28 1   
    26   12   13 1   
    27   12   14 1   
@<TRIPOS>SUBSTRUCTURE
     1 ZDR         1 TEMP              0 ****  ****    0 ROOT
