@<TRIPOS>MOLECULE
molecule
   18    18     1     0     0
SMALL
bcc


@<TRIPOS>ATOM
      1 C1           0.0000     0.0000     0.0000 ca         1 ZDV      -0.118000
      2 C2           1.3820     0.0000     0.0000 ca         1 ZDV      -0.171300
      3 C3           2.1370     0.0000    -1.3050 c3         1 ZDV       0.160100
      4 N9           2.3800     1.3850    -1.7290 nz         1 ZDV      -0.810600
      5 C18          2.0740     0.0000     1.1970 ca         1 ZDV      -0.150000
      6 C19          1.3810     0.0000     2.3960 ca         1 ZDV       0.159900
      7 F7           2.0560     0.0020     3.5660 f          1 ZDV      -0.107900
      8 C20         -0.0040    -0.0010     2.3940 ca         1 ZDV      -0.115000
      9 C21         -0.6930    -0.0000     1.1970 ca         1 ZDV      -0.084000
     10 H1          -0.5410     0.0000    -0.9380 ha         1 ZDV       0.141000
     11 H3           3.0840    -0.5100    -1.1750 hx         1 ZDV       0.115200
     12 H3A          1.5520    -0.5110    -2.0600 hx         1 ZDV       0.115200
     13 HN9          1.5200     1.7970    -2.0320 hn         1 ZDV       0.456467
     14 H18          3.1580    -0.0000     1.1970 ha         1 ZDV       0.152000
     15 H20         -0.5470    -0.0010     3.3320 ha         1 ZDV       0.177000
     16 H21         -1.7760    -0.0010     1.1950 ha         1 ZDV       0.168000
     17 H2           2.7490     1.9090    -0.9600 hn         1 ZDV       0.456467
     18 H93          3.0380     1.3920    -2.4840 hn         1 ZDV       0.456467
@<TRIPOS>BOND
     1     1     2 ar
     2     1     9 ar
     3     2     3 1
     4     2     5 ar
     5     3     4 1
     6     5     6 ar
     7     6     7 1
     8     6     8 ar
     9     8     9 ar
    10     1    10 1
    11     3    11 1
    12     3    12 1
    13     4    13 1
    14     5    14 1
    15     8    15 1
    16     9    16 1
    17     4    17 1
    18    18     4 1
@<TRIPOS>SUBSTRUCTURE
     1 ZDV         1 TEMP              0 ****  ****    0 ROOT
