@<TRIPOS>MOLECULE
ZDV
   18    18     1     0     0
SMALL
bcc


@<TRIPOS>ATOM
      1 C1           0.0000     0.0000     0.0000 ca         1 ZDV      -0.083000
      2 C2           1.3820     0.0000     0.0000 ca         1 ZDV      -0.188300
      3 C3           2.1370     0.0000    -1.3050 c3         1 ZDV       0.038100
      4 N9           2.3800     1.3850    -1.7290 nz         1 ZDV       0.075400
      5 C18          2.0740     0.0000     1.1970 ca         1 ZDV      -0.109000
      6 C19          1.3810     0.0000     2.3960 ca         1 ZDV       0.138900
      7 F7           2.0560     0.0020     3.5660 f          1 ZDV      -0.102900
      8 C20         -0.0040    -0.0010     2.3940 ca         1 ZDV      -0.073000
      9 C21         -0.6930    -0.0000     1.1970 ca         1 ZDV      -0.049000
     10 H1          -0.5410     0.0000    -0.9380 ha         1 ZDV       0.113000
     11 H3           3.0840    -0.5100    -1.1750 hx         1 ZDV       0.084200
     12 H3A          1.5520    -0.5110    -2.0600 hx         1 ZDV       0.084200
     13 HN9          1.5200     1.7970    -2.0320 hn         1 ZDV       0.224133
     14 H18          3.1580    -0.0000     1.1970 ha         1 ZDV       0.125000
     15 H20         -0.5470    -0.0010     3.3320 ha         1 ZDV       0.142000
     16 H21         -1.7760    -0.0010     1.1950 ha         1 ZDV       0.131000
     17 H2           2.7490     1.9090    -0.9600 hn         1 ZDV       0.224133
     18 H93          3.0380     1.3920    -2.4840 hn         1 ZDV       0.224133
@<TRIPOS>BOND
     1     1     2 ar  
     2     1     9 ar  
     3     1    10 1   
     4     2     3 1   
     5     2     5 ar  
     6     3     4 1   
     7     3    11 1   
     8     3    12 1   
     9     4    13 1   
    10     4    17 1   
    11     4    18 1   
    12     5     6 ar  
    13     5    14 1   
    14     6     7 1   
    15     6     8 ar  
    16     8     9 ar  
    17     8    15 1   
    18     9    16 1   
@<TRIPOS>SUBSTRUCTURE
     1 ZDV         1 TEMP              0 ****  ****    0 ROOT
