@<TRIPOS>MOLECULE
molecule
   37    37     1     0     0
SMALL
bcc


@<TRIPOS>ATOM
      1 O1           0.0000     0.0000     0.0000 oh         1 ZE7      -0.612800
      2 C1           1.4290     0.0000     0.0000 c3         1 ZE7       0.139400
      3 C2           1.9390     0.0000     1.4430 c3         1 ZE7      -0.081400
      4 C3           3.4690     0.0010     1.4440 c3         1 ZE7      -0.082400
      5 C4           3.9780    -0.0000     2.8860 c3         1 ZE7      -0.080400
      6 C5           5.5090     0.0000     2.8870 c3         1 ZE7      -0.083400
      7 C6           6.0180     0.0000     4.3290 c3         1 ZE7      -0.077400
      8 C7           7.5480     0.0020     4.3290 c3         1 ZE7      -0.070700
      9 C8           8.0580    -0.1240     5.7660 c3         1 ZE7      -0.075400
     10 C9           9.5880    -0.1250     5.7670 c3         1 ZE7      -0.079400
     11 C10         10.0970     1.1830     5.1570 c3         1 ZE7      -0.079400
     12 C11          9.5880     1.3090     3.7210 c3         1 ZE7      -0.079400
     13 C12          8.0570     1.3090     3.7200 c3         1 ZE7      -0.075400
     14 H1O         -0.3140    -0.0000    -0.8890 ho         1 ZE7       0.401000
     15 H11          1.7900     0.8850    -0.5110 h1         1 ZE7       0.018700
     16 H12          1.7900    -0.8850    -0.5110 h1         1 ZE7       0.018700
     17 H21          1.5770     0.8840     1.9530 hc         1 ZE7       0.053700
     18 H22          1.5780    -0.8850     1.9530 hc         1 ZE7       0.053700
     19 H31          3.8300     0.8860     0.9340 hc         1 ZE7       0.040700
     20 H32          3.8310    -0.8830     0.9330 hc         1 ZE7       0.040700
     21 H41          3.6170    -0.8850     3.3950 hc         1 ZE7       0.043200
     22 H42          3.6170     0.8840     3.3970 hc         1 ZE7       0.043200
     23 H51          5.8700     0.8850     2.3760 hc         1 ZE7       0.042200
     24 H52          5.8700    -0.8840     2.3760 hc         1 ZE7       0.042200
     25 H61          5.6560     0.8840     4.8400 hc         1 ZE7       0.042200
     26 H62          5.6570    -0.8850     4.8390 hc         1 ZE7       0.042200
     27 H71          7.9150    -0.8330     3.7440 hc         1 ZE7       0.050700
     28 H81          7.6980    -1.0520     6.1950 hc         1 ZE7       0.041450
     29 H82          7.6980     0.7140     6.3500 hc         1 ZE7       0.041450
     30 H91          9.9480    -0.2110     6.7850 hc         1 ZE7       0.039700
     31 H92          9.9480    -0.9600     5.1790 hc         1 ZE7       0.039700
     32 H101        11.1810     1.1820     5.1560 hc         1 ZE7       0.039700
     33 H102         9.7330     2.0190     5.7430 hc         1 ZE7       0.039700
     34 H111         9.9480     2.2360     3.2910 hc         1 ZE7       0.039700
     35 H112         9.9480     0.4710     3.1360 hc         1 ZE7       0.039700
     36 H121         7.6980     1.3960     2.7020 hc         1 ZE7       0.041450
     37 H122         7.6970     2.1450     4.3080 hc         1 ZE7       0.041450
@<TRIPOS>BOND
     1     1     2 1
     2     2     3 1
     3     2    15 1
     4     2    16 1
     5     3     4 1
     6     3    17 1
     7     3    18 1
     8     4     5 1
     9     4    19 1
    10     4    20 1
    11     5     6 1
    12     5    21 1
    13     5    22 1
    14     6     7 1
    15     6    23 1
    16     6    24 1
    17     7     8 1
    18     7    25 1
    19     7    26 1
    20     8     9 1
    21     8    13 1
    22     8    27 1
    23     9    10 1
    24     9    28 1
    25     9    29 1
    26    10    11 1
    27    10    30 1
    28    10    31 1
    29    11    12 1
    30    11    32 1
    31    11    33 1
    32    12    13 1
    33    12    34 1
    34    12    35 1
    35    13    36 1
    36    13    37 1
    37    14     1 1
@<TRIPOS>SUBSTRUCTURE
     1 ZE7         1 TEMP              0 ****  ****    0 ROOT
