@<TRIPOS>MOLECULE
ZE8
   28    29     1     0     0
SMALL
bcc


@<TRIPOS>ATOM
      1 N1           0.0000     0.0000     0.0000 n          1 ZE8       0.080000
      2 C2           1.3460     0.0000     0.0000 c          1 ZE8       0.692900
      3 O2           1.9470     0.0010    -1.0610 o          1 ZE8      -0.668500
      4 N3           2.0330     0.0000     1.1440 nc         1 ZE8      -0.574100
      5 C4           1.4110    -0.0010     2.3060 cd         1 ZE8       0.552500
      6 C5           0.0130    -0.0010     2.3450 cd         1 ZE8      -0.371600
      7 C6          -0.6810     0.0050     1.1760 cc         1 ZE8      -0.078400
      8 C1'         -0.7320     0.0000    -1.2690 c3         1 ZE8       0.201500
      9 C2'         -0.4030     1.2740    -2.0790 c3         1 ZE8       0.116100
     10 O2'         -1.4270     2.2560    -1.9050 oh         1 ZE8      -0.559800
     11 C3'         -0.3630     0.7870    -3.5450 c3         1 ZE8       0.145100
     12 O3'         -1.3610     1.4540    -4.3210 oh         1 ZE8      -0.556800
     13 C4'         -0.6730    -0.7240    -3.4470 c3         1 ZE8       0.160100
     14 O4'         -0.2900    -1.0920    -2.1040 os         1 ZE8      -0.362600
     15 C5'          0.1550    -1.5030    -4.4700 c3         1 ZE8       0.222400
     16 O5'         -0.2290    -2.8790    -4.4450 oh         1 ZE8      -0.584800
     17 H1           1.9800    -0.0030     3.2270 h4         1 ZE8      -0.011200
     18 H2          -0.5100     0.0000     3.2940 ha         1 ZE8       0.132000
     19 H3          -1.7650     0.0050     1.1810 h4         1 ZE8       0.134000
     20 H4          -1.7990    -0.0690    -1.0950 h2         1 ZE8       0.049700
     21 H5           0.5620     1.6680    -1.7860 h1         1 ZE8       0.047700
     22 H6          -1.0340     3.0860    -1.6940 ho         1 ZE8       0.391000
     23 H7           0.6220     0.9440    -3.9670 h1         1 ZE8       0.024700
     24 H8          -0.9450     1.9790    -4.9840 ho         1 ZE8       0.388000
     25 H9          -1.7310    -0.9000    -3.5970 h1         1 ZE8       0.043700
     26 H10         -0.0190    -1.0970    -5.4600 h1         1 ZE8      -0.001300
     27 H11          1.2070    -1.4170    -4.2250 h1         1 ZE8      -0.001300
     28 H12          0.2350    -3.3480    -5.1190 ho         1 ZE8       0.391000
@<TRIPOS>BOND
     1     1     2 1   
     2     1     7 1   
     3     1     8 1   
     4     2     3 2   
     5     2     4 1   
     6     4     5 2   
     7     5     6 1   
     8     5    17 1   
     9     6     7 2   
    10     6    18 1   
    11     7    19 1   
    12     8     9 1   
    13     8    14 1   
    14     8    20 1   
    15     9    10 1   
    16     9    11 1   
    17     9    21 1   
    18    10    22 1   
    19    11    12 1   
    20    11    13 1   
    21    11    23 1   
    22    12    24 1   
    23    13    14 1   
    24    13    15 1   
    25    13    25 1   
    26    15    16 1   
    27    15    26 1   
    28    15    27 1   
    29    16    28 1   
@<TRIPOS>SUBSTRUCTURE
     1 ZE8         1 TEMP              0 ****  ****    0 ROOT
