@<TRIPOS>MOLECULE
molecule
   29    30     1     0     0
SMALL
bcc


@<TRIPOS>ATOM
      1 O16          0.0000     0.0000     0.0000 oh         1 ZEA      -0.612800
      2 C14          1.4290     0.0000     0.0000 c3         1 ZEA       0.182600
      3 C13          1.9310     0.0000     1.4210 c2         1 ZEA      -0.125400
      4 C15          3.4120    -0.0000     1.6980 c3         1 ZEA      -0.055900
      5 C12          1.0790     0.0020     2.4170 c2         1 ZEA      -0.184200
      6 C11          1.5760     0.1270     3.8340 c3         1 ZEA       0.265000
      7 N10          0.9020     1.2490     4.4910 nu         1 ZEA      -0.883900
      8 C6           1.1980     1.5620     5.8050 ca         1 ZEA       0.788200
      9 C5           0.5600     2.6350     6.4510 ca         1 ZEA      -0.214200
     10 N9          -0.3700     3.5490     6.0860 nc         1 ZEA      -0.581100
     11 C4           0.9020     2.9030     7.7870 ca         1 ZEA       0.470800
     12 N7           0.1440     3.9830     8.1630 na         1 ZEA      -0.359000
     13 C8          -0.6160     4.3410     7.0890 cd         1 ZEA       0.406700
     14 N3           1.8080     2.1370     8.3880 nb         1 ZEA      -0.802000
     15 C2           2.3790     1.1410     7.7440 ca         1 ZEA       0.744900
     16 N1           2.0860     0.8490     6.4900 nb         1 ZEA      -0.840000
     17 H16         -0.3140    -0.0590    -0.8870 ho         1 ZEA       0.406000
     18 H141         1.7910    -0.8850    -0.5100 h1         1 ZEA       0.031700
     19 H142         1.7910     0.8850    -0.5100 h1         1 ZEA       0.031700
     20 H151         3.6500    -0.8000     2.3890 hc         1 ZEA       0.046700
     21 H152         3.9520    -0.1510     0.7710 hc         1 ZEA       0.046700
     22 H153         3.6990     0.9500     2.1320 hc         1 ZEA       0.046700
     23 H12          0.0140     0.0030     2.2170 ha         1 ZEA       0.154000
     24 H111         1.3630    -0.7880     4.3740 h1         1 ZEA       0.059200
     25 H112         2.6450     0.3020     3.8270 h1         1 ZEA       0.059200
     26 H10          0.2220     1.7860     3.9900 hn         1 ZEA       0.466800
     27 H7           0.1490     4.4270     9.0600 hn         1 ZEA       0.312700
     28 H8          -1.3210     5.1630     7.0730 h5         1 ZEA       0.077800
     29 H2           3.1090     0.5340     8.2650 h5         1 ZEA       0.060100
@<TRIPOS>BOND
     1     1     2 1
     2     1    17 1
     3     2     3 1
     4     2    18 1
     5     2    19 1
     6     3     4 1
     7     3     5 2
     8     4    20 1
     9     4    21 1
    10     4    22 1
    11     5     6 1
    12     5    23 1
    13     6     7 1
    14     6    24 1
    15     6    25 1
    16     7     8 1
    17     7    26 1
    18     8     9 ar
    19     8    16 ar
    20     9    10 1
    21     9    11 ar
    22    10    13 2
    23    11    12 1
    24    11    14 ar
    25    12    13 1
    26    12    27 1
    27    13    28 1
    28    14    15 ar
    29    15    16 ar
    30    15    29 1
@<TRIPOS>SUBSTRUCTURE
     1 ZEA         1 TEMP              0 ****  ****    0 ROOT
