@<TRIPOS>MOLECULE
ZEA
   29    31     1     0     0
SMALL
bcc


@<TRIPOS>ATOM
      1 O16          0.0000     0.0000     0.0000 oh         1 ZEA      -0.272000
      2 C14          1.4290     0.0000     0.0000 c3         1 ZEA       0.107000
      3 C13          1.9310     0.0000     1.4210 c2         1 ZEA       0.065000
      4 C15          3.4120    -0.0000     1.6980 c3         1 ZEA      -0.142000
      5 C12          1.0790     0.0020     2.4170 c2         1 ZEA      -0.475000
      6 C11          1.5760     0.1270     3.8340 DU         1 ZEA      -0.113000
      7 N10          0.9020     1.2490     4.4910 nu         1 ZEA       0.145000
      8 C6           1.1980     1.5620     5.8050 c2         1 ZEA       0.075000
      9 C5           0.5600     2.6350     6.4510 c2         1 ZEA      -0.252000
     10 N9          -0.3700     3.5490     6.0860 n2         1 ZEA      -0.054000
     11 C4           0.9020     2.9030     7.7870 c2         1 ZEA      -0.141000
     12 N7           0.1440     3.9830     8.1630 na         1 ZEA       0.329000
     13 C8          -0.6160     4.3410     7.0890 c2         1 ZEA      -0.245000
     14 N3           1.8080     2.1370     8.3880 n2         1 ZEA      -0.166000
     15 C2           2.3790     1.1410     7.7440 c2         1 ZEA       0.034000
     16 N1           2.0860     0.8490     6.4900 n2         1 ZEA      -0.240000
     17 H16         -0.3140    -0.0410    -0.8880 ho         1 ZEA       0.175000
     18 H141         1.7910     0.8850    -0.5100 h1         1 ZEA       0.036500
     19 H142         1.7910    -0.8850    -0.5100 h1         1 ZEA       0.036500
     20 H151         3.9520    -0.1530     0.7710 hc         1 ZEA       0.064000
     21 H152         3.6500    -0.7990     2.3900 hc         1 ZEA       0.064000
     22 H153         3.6990     0.9500     2.1310 hc         1 ZEA       0.064000
     23 H12          1.4440    -0.8530     2.9730 DU         1 ZEA       0.298000
     24 H111         1.3630    -0.7880     4.3740 ha         1 ZEA       0.057000
     25 H112         2.6450     0.3010     3.8270 ha         1 ZEA       0.057000
     26 H10          0.2270     1.7910     3.9880 hn         1 ZEA       0.120000
     27 H7           0.1490     4.4270     9.0600 hn         1 ZEA       0.082000
     28 H8          -1.3210     5.1630     7.0730 h5         1 ZEA       0.160000
     29 H2           3.1090     0.5340     8.2650 h5         1 ZEA       0.129000
@<TRIPOS>BOND
     1     1     2 1   
     2     1    17 1   
     3     2     3 1   
     4     2    18 1   
     5     2    19 1   
     6     3     4 1   
     7     3     5 1   
     8     4    20 1   
     9     4    21 1   
    10     4    22 1   
    11     5     6 1   
    12     5    23 1   
    13     6     7 1   
    14     6    23 1   
    15     6    24 1   
    16     6    25 1   
    17     7     8 1   
    18     7    26 1   
    19     8     9 1   
    20     8    16 1   
    21     9    10 1   
    22     9    11 1   
    23    10    13 1   
    24    11    12 1   
    25    11    14 1   
    26    12    13 1   
    27    12    27 1   
    28    13    28 1   
    29    14    15 1   
    30    15    16 1   
    31    15    29 1   
@<TRIPOS>SUBSTRUCTURE
     1 ZEA         1 TEMP              0 ****  ****    0 ROOT
