@<TRIPOS>MOLECULE
ZEB
   31    32     1     0     0
SMALL
bcc


@<TRIPOS>ATOM
      1 N1           0.0000     0.0000     0.0000 n          1 ZEB       0.018000
      2 C2           1.3390     0.0000     0.0000 c          1 ZEB       0.624500
      3 O2           1.9310     0.0100    -1.0620 o          1 ZEB      -0.733500
      4 N3           2.0490     0.0000     1.1460 ns         1 ZEB      -0.202900
      5 C4           1.3160    -0.0130     2.4230 c3         1 ZEB       0.303700
      6 O4           1.7270    -1.1710     3.1520 oh         1 ZEB      -0.588800
      7 C5          -0.1960    -0.0200     2.3500 c2         1 ZEB      -0.261200
      8 C6          -0.7620    -0.0120     1.1580 c2         1 ZEB      -0.095400
      9 C1'         -0.6940     0.0070    -1.2890 c3         1 ZEB       0.227500
     10 C2'         -0.2400     1.2120    -2.1510 c3         1 ZEB       0.102100
     11 O2'         -1.0060     2.3770    -1.8420 oh         1 ZEB      -0.561800
     12 C3'         -0.5450     0.7150    -3.5890 c3         1 ZEB       0.136100
     13 O3'         -1.7970     1.2330    -4.0420 oh         1 ZEB      -0.558800
     14 C4'         -0.6030    -0.8180    -3.4500 c3         1 ZEB       0.155100
     15 O4'         -0.3100    -1.1370    -2.0790 os         1 ZEB      -0.367600
     16 C5'          0.4360    -1.4640    -4.3680 c3         1 ZEB       0.217400
     17 O5'          0.3790    -2.8840    -4.2270 oh         1 ZEB      -0.576800
     18 HN3          3.0500     0.0090     1.1300 hn         1 ZEB       0.205500
     19 H4           1.6150     0.8640     2.9830 h2         1 ZEB      -0.013300
     20 HO4          2.1030    -0.9070     3.9750 ho         1 ZEB       0.391000
     21 H5          -0.7810     0.2220     3.2290 ha         1 ZEB       0.131000
     22 H6          -1.8430    -0.0140     1.0820 h4         1 ZEB       0.128000
     23 H1'         -1.7680     0.0260    -1.1490 h2         1 ZEB       0.047700
     24 H2'          0.8210     1.3940    -2.0260 h1         1 ZEB       0.070700
     25 HO2         -0.4480     3.1370    -1.8730 ho         1 ZEB       0.387000
     26 H3'          0.2550     1.0010    -4.2620 h1         1 ZEB       0.012700
     27 HO3         -1.6810     1.6430    -4.8830 ho         1 ZEB       0.386000
     28 H4'         -1.5950    -1.1700    -3.7040 h1         1 ZEB       0.038700
     29 H5'1         1.4250    -1.1140    -4.0970 h1         1 ZEB      -0.004800
     30 H5'2         0.2270    -1.1950    -5.3960 h1         1 ZEB      -0.004800
     31 HO5          0.8120    -3.2910    -4.9600 ho         1 ZEB       0.385000
@<TRIPOS>BOND
     1     1     2 1   
     2     1     8 1   
     3     1     9 1   
     4     2     3 2   
     5     2     4 1   
     6     4     5 1   
     7     4    18 1   
     8     5     6 1   
     9     5     7 1   
    10     5    19 1   
    11     6    20 1   
    12     7     8 2   
    13     7    21 1   
    14     8    22 1   
    15     9    10 1   
    16     9    15 1   
    17     9    23 1   
    18    10    11 1   
    19    10    12 1   
    20    10    24 1   
    21    11    25 1   
    22    12    13 1   
    23    12    14 1   
    24    12    26 1   
    25    13    27 1   
    26    14    15 1   
    27    14    16 1   
    28    14    28 1   
    29    16    17 1   
    30    16    29 1   
    31    16    30 1   
    32    17    31 1   
@<TRIPOS>SUBSTRUCTURE
     1 ZEB         1 TEMP              0 ****  ****    0 ROOT
