@<TRIPOS>MOLECULE
ZEC
   21    22     1     0     0
SMALL
bcc


@<TRIPOS>ATOM
      1 O1           0.0000     0.0000     0.0000 oh         1 ZEC      -0.485100
      2 C2           1.3590     0.0000     0.0000 ca         1 ZEC       0.234100
      3 C7           2.0610     0.0000     1.1960 ca         1 ZEC      -0.118000
      4 C6           3.4340    -0.0000     1.1710 ca         1 ZEC       0.105900
      5 S8           4.7170     0.0000     2.4010 ss         1 ZEC      -0.079100
      6 C9           6.1050     0.0000     1.2750 cc         1 ZEC       0.231600
      7 S11          7.8280     0.0010     1.6460 sy         1 ZEC       0.927000
      8 N14          8.6440     0.0020     0.2050 nz         1 ZEC      -0.117500
      9 O13          8.0940     1.2640     2.2400 o          1 ZEC      -0.481300
     10 O12          8.0960    -1.2610     2.2400 o          1 ZEC      -0.481300
     11 N10          5.5190     0.0060     0.1090 nd         1 ZEC      -0.364100
     12 C5           4.1760    -0.0000    -0.0320 ca         1 ZEC      -0.039600
     13 C4           3.4220    -0.0000    -1.2300 ca         1 ZEC       0.030000
     14 C3           2.0640    -0.0000    -1.2010 ca         1 ZEC      -0.142000
     15 HO1         -0.3140     0.8860     0.0690 ho         1 ZEC       0.430000
     16 H7           1.5360    -0.1430     2.1320 ha         1 ZEC       0.147000
     17 H141         8.3970    -0.8150    -0.3180 hn         1 ZEC       0.316467
     18 H142         8.3980     0.8190    -0.3180 hn         1 ZEC       0.316467
     19 H4           3.9360    -0.0000    -2.1840 ha         1 ZEC       0.115000
     20 H3           1.5160    -0.0000    -2.1350 ha         1 ZEC       0.138000
     21 H143         9.6290     0.0020     0.3790 hn         1 ZEC       0.316467
@<TRIPOS>BOND
     1     1     2 1   
     2     1    15 1   
     3     2     3 ar  
     4     2    14 ar  
     5     3     4 ar  
     6     3    16 1   
     7     4     5 1   
     8     4    12 ar  
     9     5     6 1   
    10     6     7 1   
    11     6    11 2   
    12     7     8 1   
    13     7     9 2   
    14     7    10 2   
    15     8    17 1   
    16     8    18 1   
    17     8    21 1   
    18    11    12 1   
    19    12    13 ar  
    20    13    14 ar  
    21    13    19 1   
    22    14    20 1   
@<TRIPOS>SUBSTRUCTURE
     1 ZEC         1 TEMP              0 ****  ****    0 ROOT
