@<TRIPOS>MOLECULE
ZED
   39    40     1     0     0
SMALL
bcc


@<TRIPOS>ATOM
      1 CZ1          0.0000     0.0000     0.0000 ca         1 ZED      -0.104500
      2 CZ2          1.3900     0.0000     0.0000 ca         1 ZED       0.071900
      3 CZ3          2.0800     0.0000     1.2060 ca         1 ZED      -0.104500
      4 CZ4          1.3850     0.0120     2.3980 ca         1 ZED      -0.091500
      5 CZ5          0.0020     0.0110     2.3940 ca         1 ZED      -0.118000
      6 CZ6         -0.6890     0.0050     1.1960 ca         1 ZED      -0.091500
      7 CZ7          5.7520    -1.7960    -0.5870 c3         1 ZED      -0.081300
      8 CZ8          6.0670    -3.1900    -1.0640 c          1 ZED       0.976600
      9 CZ9          4.2280    -1.6350    -0.4080 c3         1 ZED      -0.012400
     10 CZA          3.9680    -0.1880    -0.9050 c3         1 ZED       0.026400
     11 CZB          4.9960    -0.0660    -2.0570 c3         1 ZED       0.064000
     12 CZC          6.9740     0.1190    -4.3270 c3         1 ZED      -0.023100
     13 CZD          7.7440     0.4390    -3.0440 c3         1 ZED      -0.106700
     14 CZF          9.2450     0.4540    -3.3400 c3         1 ZED       0.135700
     15 OZ1          5.7470    -4.2480    -0.3030 o          1 ZED      -0.879800
     16 OZ2          6.6080    -3.3560    -2.1310 o          1 ZED      -0.879800
     17 OZ3          8.3470    -1.2820    -1.5470 o          1 ZED      -0.626100
     18 NZ1          6.1810    -0.8060    -1.5860 n          1 ZED      -0.117800
     19 SZ1          2.2730    -0.0060    -1.5250 ss         1 ZED      -0.330000
     20 SZ2          9.6220     1.8150    -4.4790 sh         1 ZED      -0.447900
     21 HZ1         -0.5420    -0.0030    -0.9380 ha         1 ZED       0.124000
     22 HZ3          3.1630     0.0000     1.2110 ha         1 ZED       0.124000
     23 HZ4          1.9230     0.0150     3.3380 ha         1 ZED       0.098000
     24 HZ5         -0.5410     0.0180     3.3310 ha         1 ZED       0.096000
     25 HZ6         -1.7720     0.0040     1.1960 ha         1 ZED       0.098000
     26 HZ7          6.2510    -1.6040     0.3550 h1         1 ZED       0.031700
     27 HZ91         3.6940    -2.3510    -1.0210 hc         1 ZED       0.044700
     28 HZ92         3.9540    -1.7340     0.6360 hc         1 ZED       0.044700
     29 H100         4.1810     0.5310    -0.1230 h1         1 ZED       0.052700
     30 H111         5.2470     0.9740    -2.2280 h1         1 ZED       0.023200
     31 H112         4.6040    -0.5190    -2.9590 h1         1 ZED       0.023200
     32 H123         7.6480     0.1640    -5.1740 hc         1 ZED       0.021033
     33 H133         7.4390     1.4090    -2.6730 hc         1 ZED       0.036700
     34 H151         9.7930     0.5940    -2.4160 h1         1 ZED       0.049700
     35 H152         9.5340    -0.4870    -3.7930 h1         1 ZED       0.049700
     36 HSZ2        10.9260     2.0630    -4.4560 hs         1 ZED       0.173800
     37 CZE          7.4470    -0.6120    -2.0050 c          1 ZED       0.608100
     38 H121         6.1780     0.8410    -4.4600 hc         1 ZED       0.021033
     39 H122         6.5510    -0.8760    -4.2560 hc         1 ZED       0.021033
@<TRIPOS>BOND
     1     1     2 ar  
     2     1     6 ar  
     3     1    21 1   
     4     2     3 ar  
     5     2    19 1   
     6     3     4 ar  
     7     3    22 1   
     8     4     5 ar  
     9     4    23 1   
    10     5     6 ar  
    11     5    24 1   
    12     6    25 1   
    13     7     8 1   
    14     7     9 1   
    15     7    18 1   
    16     7    26 1   
    17     8    15 1   
    18     8    16 1   
    19     9    10 1   
    20     9    27 1   
    21     9    28 1   
    22    10    11 1   
    23    10    19 1   
    24    10    29 1   
    25    11    18 1   
    26    11    30 1   
    27    11    31 1   
    28    12    13 1   
    29    12    32 1   
    30    12    38 1   
    31    12    39 1   
    32    13    14 1   
    33    13    33 1   
    34    13    37 1   
    35    14    20 1   
    36    14    34 1   
    37    14    35 1   
    38    17    37 2   
    39    18    37 1   
    40    20    36 1   
@<TRIPOS>SUBSTRUCTURE
     1 ZED         1 TEMP              0 ****  ****    0 ROOT
