@<TRIPOS>MOLECULE
ZEN
   61    65     1     0     0
SMALL
bcc


@<TRIPOS>ATOM
      1 N1          0.3100    0.7090   -0.3330 nb        1 ZEN     -0.686000
      2 C2          1.6100    0.4700   -0.0670 ca        1 ZEN      0.415700
      3 C3          2.1070    0.1290    1.1970 ca        1 ZEN     -0.295800
      4 C5         -0.1620    0.2630    2.0080 ca        1 ZEN     -0.295800
      5 C6         -0.5430    0.6050    0.7020 ca        1 ZEN      0.415700
      6 C4          1.2040    0.0190    2.2860 ca        1 ZEN      0.183600
      7 N7          1.6810   -0.2390    3.5880 nh        1 ZEN     -0.645000
      8 C8          0.7150   -0.1380    4.6680 c3        1 ZEN      0.192800
      9 C9          1.3550   -0.1830    6.0540 c3        1 ZEN     -0.076900
     10 C11         3.2880   -1.4010    5.0930 c3        1 ZEN     -0.076900
     11 C12         2.6140   -1.3460    3.7220 c3        1 ZEN      0.192800
     12 C10         2.2460   -1.4080    6.2000 c3        1 ZEN     -0.127700
     13 C13         2.9170   -1.3990    7.5690 c         1 ZEN      0.657100
     14 O23         2.8720   -0.3810    8.2900 o         1 ZEN     -0.599100
     15 N14         3.6520   -2.5060    7.9900 n         1 ZEN     -0.461800
     16 C15         4.2380   -2.5130    9.3160 c3        1 ZEN      0.072500
     17 C16         3.5900   -3.5410   10.2730 c3        1 ZEN      0.197300
     18 C18         2.8620   -4.8520    8.3660 c3        1 ZEN      0.197300
     19 C19         3.5190   -3.8210    7.4130 c3        1 ZEN      0.072500
     20 N17         3.4250   -4.8480    9.6890 n3        1 ZEN     -0.814500
     21 S20         3.8530   -6.2140   10.4670 sy        1 ZEN      1.508200
     22 O21         4.8970   -5.9340   11.3730 o         1 ZEN     -0.649800
     23 O22         4.0820   -7.2410    9.5210 o         1 ZEN     -0.649800
     24 C24         2.4680   -6.6130   11.3490 ca        1 ZEN     -0.375500
     25 C25         1.5780   -7.5680   10.9020 ca        1 ZEN      0.026000
     26 C33         2.2280   -5.9840   12.5990 ca        1 ZEN     -0.042000
     27 C34         1.1290   -6.2990   13.3550 ca        1 ZEN     -0.132000
     28 C26         0.4310   -7.9200   11.6590 ca        1 ZEN     -0.076000
     29 C27         0.1990   -7.2740   12.9000 ca        1 ZEN      0.017000
     30 C28        -0.9510   -7.6180   13.6620 ca        1 ZEN     -0.130000
     31 C30        -1.5950   -9.2270   11.9500 ca        1 ZEN     -0.131000
     32 C31        -0.4900   -8.9040   11.2040 ca        1 ZEN     -0.090000
     33 C29        -1.8240   -8.5730   13.1900 ca        1 ZEN      0.041400
     34 CL32       -3.2020   -8.9930   14.0890 cl        1 ZEN     -0.080400
     35 H2          2.2980    0.5640   -0.9270 h4        1 ZEN      0.020600
     36 H3          3.1860   -0.0260    1.3260 ha        1 ZEN      0.143500
     37 H5         -0.9340    0.1920    2.7850 ha        1 ZEN      0.143500
     38 H6         -1.6050    0.8040    0.4680 h4        1 ZEN      0.020600
     39 H82         0.1800    0.8490    4.5630 h1        1 ZEN      0.041450
     40 H81        -0.0560   -0.9620    4.6000 h1        1 ZEN      0.041450
     41 H92         0.5410   -0.2070    6.8240 hc        1 ZEN      0.066950
     42 H91         1.9620    0.7430    6.2350 hc        1 ZEN      0.066950
     43 H112        3.9170   -2.3270    5.1350 hc        1 ZEN      0.066950
     44 H111        3.9650   -0.5170    5.2240 hc        1 ZEN      0.066950
     45 H122        2.0880   -2.3300    3.5420 h1        1 ZEN      0.041450
     46 H121        3.4180   -1.2400    2.9410 h1        1 ZEN      0.041450
     47 H10         1.5990   -2.3250    6.1090 hc        1 ZEN      0.060700
     48 H152        4.1440   -1.4940    9.7850 h1        1 ZEN      0.069200
     49 H151        5.3320   -2.7570    9.2000 h1        1 ZEN      0.069200
     50 H162        2.5820   -3.1480   10.5960 h1        1 ZEN      0.060700
     51 H161        4.2510   -3.6230   11.1840 h1        1 ZEN      0.060700
     52 H182        2.9960   -5.8740    7.9060 h1        1 ZEN      0.060700
     53 H181        1.7570   -4.6300    8.4290 h1        1 ZEN      0.060700
     54 H192        2.9100   -3.7980    6.4690 h1        1 ZEN      0.069200
     55 H191        4.5550   -4.1810    7.1480 h1        1 ZEN      0.069200
     56 H25         1.7600   -8.0870    9.9430 ha        1 ZEN      0.156000
     57 H33         2.9630   -5.2440   12.9620 ha        1 ZEN      0.150000
     58 H34         0.9510   -5.8100   14.3250 ha        1 ZEN      0.145000
     59 H28        -1.1230   -7.1110   14.6240 ha        1 ZEN      0.154000
     60 H30        -2.3090   -9.9890   11.6010 ha        1 ZEN      0.154000
     61 H31        -0.2970   -9.4050   10.2420 ha        1 ZEN      0.144000
@<TRIPOS>BOND
     1    1    2 ar
     2    1    5 ar
     3    2    3 ar
     4    2   35 1
     5    3    6 ar
     6    3   36 1
     7    4    5 ar
     8    4    6 ar
     9    4   37 1
    10    5   38 1
    11    6    7 1
    12    7    8 1
    13    7   11 1
    14    8    9 1
    15    8   39 1
    16    8   40 1
    17    9   12 1
    18    9   41 1
    19    9   42 1
    20   10   11 1
    21   10   12 1
    22   10   43 1
    23   10   44 1
    24   11   45 1
    25   11   46 1
    26   12   13 1
    27   12   47 1
    28   13   14 2
    29   13   15 1
    30   15   16 1
    31   15   19 1
    32   16   17 1
    33   16   48 1
    34   16   49 1
    35   17   20 1
    36   17   50 1
    37   17   51 1
    38   18   19 1
    39   18   20 1
    40   18   52 1
    41   18   53 1
    42   19   54 1
    43   19   55 1
    44   20   21 1
    45   21   22 2
    46   21   23 2
    47   21   24 1
    48   24   25 ar
    49   24   26 ar
    50   25   28 ar
    51   25   56 1
    52   26   27 ar
    53   26   57 1
    54   27   29 ar
    55   27   58 1
    56   28   29 ar
    57   28   32 ar
    58   29   30 ar
    59   30   33 ar
    60   30   59 1
    61   31   32 ar
    62   31   33 ar
    63   31   60 1
    64   32   61 1
    65   33   34 1
@<TRIPOS>SUBSTRUCTURE
     1 ZEN         1 TEMP              0 ****  ****    0 ROOT
