@<TRIPOS>MOLECULE
ZER
   45    46     1     0     0
SMALL
bcc


@<TRIPOS>ATOM
      1 O12         0.1840    1.0850    0.1590 o         1 ZER     -0.551000
      2 C12         1.1360    0.3350   -0.0660 c         1 ZER      0.683700
      3 O10         1.5950   -0.4940    0.9160 os        1 ZER     -0.430900
      4 C10         1.1270   -0.3860    2.2730 c3        1 ZER      0.165100
      5 C11         1.3580    0.9950    2.8440 c3        1 ZER     -0.127100
      6 C9P        -0.2900   -0.9260    2.4290 c3        1 ZER     -0.101400
      7 C1          1.9030    0.1960   -1.3210 ca        1 ZER     -0.179600
      8 C2          3.2450    0.6290   -1.3430 ca        1 ZER      0.208100
      9 O2          3.7400    1.1800   -0.1870 oh        1 ZER     -0.486100
     10 C3          4.0300    0.5180   -2.4980 ca        1 ZER     -0.315000
     11 C4          3.4520   -0.0470   -3.6420 ca        1 ZER      0.187100
     12 O4          4.1460   -0.2030   -4.8150 oh        1 ZER     -0.488100
     13 C5          2.1190   -0.4840   -3.6420 ca        1 ZER     -0.198000
     14 C6          1.3410   -0.3550   -2.4850 ca        1 ZER      0.069200
     15 C1P        -0.0340   -0.8420   -2.5510 ce        1 ZER     -0.170200
     16 C2P        -1.1160   -0.1050   -2.2720 c2        1 ZER     -0.117200
     17 C3P        -2.5030   -0.6210   -2.3900 c3        1 ZER     -0.057200
     18 C4P        -3.3550   -0.2260   -1.1980 c3        1 ZER     -0.067400
     19 C5P        -2.7420   -0.7130    0.0960 c3        1 ZER     -0.192400
     20 C6P        -3.4530   -0.2150    1.3180 c         1 ZER      0.571100
     21 O6P        -4.5510    0.3490    1.2780 o         1 ZER     -0.537100
     22 C7P        -2.7520   -0.4670    2.6300 c3        1 ZER     -0.183400
     23 C8P        -1.3540    0.1220    2.6760 c3        1 ZER     -0.080400
     24 H1          1.8370   -1.1140    2.7770 h1        1 ZER      0.069700
     25 H2          0.7140    1.7560    2.3400 hc        1 ZER      0.055033
     26 H3          2.4260    1.2870    2.6950 hc        1 ZER      0.055033
     27 H4          1.1290    0.9900    3.9360 hc        1 ZER      0.055033
     28 H5         -0.2920   -1.6480    3.2900 hc        1 ZER      0.050200
     29 H6         -0.5450   -1.5160    1.5070 hc        1 ZER      0.050200
     30 H7          4.6690    1.4110   -0.3350 ho        1 ZER      0.426000
     31 H8          5.0720    0.8630   -2.5030 ha        1 ZER      0.141000
     32 H9          5.0430    0.1400   -4.6850 ho        1 ZER      0.424000
     33 H10         1.6940   -0.9220   -4.5560 ha        1 ZER      0.161000
     34 H11        -0.1270   -1.8850   -2.9000 ha        1 ZER      0.136000
     35 H12        -1.0240    0.9390   -1.9210 ha        1 ZER      0.152000
     36 H13        -2.9630   -0.1960   -3.3240 hc        1 ZER      0.050700
     37 H14        -2.5030   -1.7380   -2.4970 hc        1 ZER      0.050700
     38 H15        -3.4620    0.8900   -1.1590 hc        1 ZER      0.056700
     39 H16        -4.3860   -0.6520   -1.3160 hc        1 ZER      0.056700
     40 H17        -1.6710   -0.3640    0.1440 hc        1 ZER      0.076200
     41 H18        -2.7370   -1.8350    0.1250 hc        1 ZER      0.076200
     42 H19        -2.7190   -1.5760    2.7970 hc        1 ZER      0.064700
     43 H20        -3.3710   -0.0220    3.4550 hc        1 ZER      0.064700
     44 H21        -1.1870    0.5820    3.6860 hc        1 ZER      0.062700
     45 H22        -1.2580    0.9470    1.9200 hc        1 ZER      0.062700
@<TRIPOS>BOND
     1    1    2 2   
     2    2    3 1   
     3    2    7 1   
     4    3    4 1   
     5    4    5 1   
     6    4    6 1   
     7    4   24 1   
     8    5   25 1   
     9    5   26 1   
    10    5   27 1   
    11    6   23 1   
    12    6   28 1   
    13    6   29 1   
    14    7    8 ar  
    15    7   14 ar  
    16    8    9 1   
    17    8   10 ar  
    18    9   30 1   
    19   10   11 ar  
    20   10   31 1   
    21   11   12 1   
    22   11   13 ar  
    23   12   32 1   
    24   13   14 ar  
    25   13   33 1   
    26   14   15 1   
    27   15   16 2   
    28   15   34 1   
    29   16   17 1   
    30   16   35 1   
    31   17   18 1   
    32   17   36 1   
    33   17   37 1   
    34   18   19 1   
    35   18   38 1   
    36   18   39 1   
    37   19   20 1   
    38   19   40 1   
    39   19   41 1   
    40   20   21 2   
    41   20   22 1   
    42   22   23 1   
    43   22   42 1   
    44   22   43 1   
    45   23   44 1   
    46   23   45 1   
@<TRIPOS>SUBSTRUCTURE
     1 ZER         1 TEMP              0 ****  ****    0 ROOT
