@<TRIPOS>MOLECULE
ZES
   36    38     1     0     0
SMALL
bcc


@<TRIPOS>ATOM
      1 C1          0.1890    0.3900   -0.1500 ca        1 ZES     -0.197000
      2 C2          1.5560    0.2540   -0.0050 ca        1 ZES     -0.041000
      3 C3          2.1320    0.1210    1.2680 ca        1 ZES     -0.237600
      4 C4          1.3240    0.1240    2.4330 ca        1 ZES      0.156600
      5 C5         -0.0830    0.2940    2.2760 ca        1 ZES     -0.162000
      6 C6         -0.6170    0.4130    1.0040 ca        1 ZES      0.075400
      7 C10         3.5930   -0.0050    1.3750 c         1 ZES      0.731100
      8 N11         4.1250   -0.1880    2.6600 n         1 ZES     -0.491400
      9 C12         3.2920   -0.2400    3.8170 c         1 ZES      0.811500
     10 N13         1.8960   -0.0860    3.6840 n         1 ZES     -0.304000
     11 C14         5.5590   -0.2580    2.8500 c3        1 ZES      0.139300
     12 C15         6.1500   -1.6380    2.7520 ca        1 ZES     -0.110300
     13 C18         6.9300   -2.1680    3.8020 ca        1 ZES      0.145900
     14 C19         7.5030   -3.4500    3.6900 ca        1 ZES     -0.155000
     15 C20         7.3000   -4.1950    2.5310 ca        1 ZES     -0.002900
     16 C21         6.5380   -3.6750    1.4820 ca        1 ZES     -0.128000
     17 C22         5.9730   -2.4070    1.5990 ca        1 ZES     -0.092000
     18 CL6        -2.3010    0.5940    0.8150 cl        1 ZES     -0.103400
     19 C27         1.1000    0.0580    4.8940 c3        1 ZES     -0.066000
     20 C28         0.3840    1.4400    5.0620 c         1 ZES      0.904600
     21 O31         1.0900    2.4760    5.1060 o         1 ZES     -0.812800
     22 O32        -0.8720    1.3850    5.1680 o         1 ZES     -0.812800
     23 O33         3.8210   -0.4710    4.9270 o         1 ZES     -0.636500
     24 O34         4.3580    0.0350    0.3870 o         1 ZES     -0.666500
     25 F35         7.1550   -1.4560    4.9310 f         1 ZES     -0.127900
     26 BR3         8.0610   -5.9040    2.3800 br        1 ZES     -0.105100
     27 H1         -0.2630    0.4900   -1.1460 ha        1 ZES      0.138000
     28 H2          2.2210    0.2520   -0.8840 ha        1 ZES      0.149000
     29 H5         -0.7370    0.3750    3.1710 ha        1 ZES      0.222000
     30 H141        5.8010    0.1790    3.8640 h1        1 ZES      0.089700
     31 H142        6.0420    0.3800    2.0500 h1        1 ZES      0.089700
     32 H19         8.0990   -3.8420    4.5280 ha        1 ZES      0.155000
     33 H21         6.3770   -4.2580    0.5630 ha        1 ZES      0.145000
     34 H22         5.3800   -1.9900    0.7650 ha        1 ZES      0.171000
     35 H271        1.7670   -0.0800    5.7880 h1        1 ZES      0.063200
     36 H272        0.3260   -0.7590    4.8830 h1        1 ZES      0.063200
@<TRIPOS>BOND
     1    1    2 ar
     2    1    6 ar
     3    1   27 1
     4    2    3 ar
     5    2   28 1
     6    3    4 ar
     7    3    7 1
     8    4    5 ar
     9    4   10 1
    10    5    6 ar
    11    5   29 1
    12    6   18 1
    13    7    8 1
    14    7   24 2
    15    8    9 1
    16    8   11 1
    17    9   10 1
    18    9   23 2
    19   10   19 1
    20   11   12 1
    21   11   30 1
    22   11   31 1
    23   12   13 ar
    24   12   17 ar
    25   13   14 ar
    26   13   25 1
    27   14   15 ar
    28   14   32 1
    29   15   16 ar
    30   15   26 1
    31   16   17 ar
    32   16   33 1
    33   17   34 1
    34   19   20 1
    35   19   35 1
    36   19   36 1
    37   20   21 1
    38   20   22 1
@<TRIPOS>SUBSTRUCTURE
     1 ZES         1 TEMP              0 ****  ****    0 ROOT
