@<TRIPOS>MOLECULE
molecule
   98    99     1     0     0
SMALL
bcc


@<TRIPOS>ATOM
      1 C6           0.0000     0.0000     0.0000 ce         1 ZEX      -0.093200
      2 C17          2.0430    -1.2330    -0.7640 c3         1 ZEX      -0.081600
      3 C4          -0.1020    -0.9010     2.4350 c3         1 ZEX      -0.036200
      4 C3           1.3870    -1.0230     2.2750 c3         1 ZEX       0.144100
      5 O3           2.1130    -1.6410     3.2800 oh         1 ZEX      -0.590800
      6 C2           2.0880     0.0000     1.4310 c3         1 ZEX      -0.057400
      7 C1           1.5150     0.0000     0.0000 c3         1 ZEX      -0.008800
      8 C5          -0.7720    -0.3830     1.1940 c2         1 ZEX      -0.146400
      9 C18         -2.2750    -0.3320     1.1750 c3         1 ZEX      -0.042900
     10 C16          2.0390     1.2750    -0.6860 c3         1 ZEX      -0.081600
     11 O23        -14.6230    -2.1690   -22.7820 oh         1 ZEX      -0.544800
     12 C26        -12.2550    -2.2040   -19.2190 cf         1 ZEX      -0.166200
     13 C7          -0.7550     0.3960    -1.2400 ce         1 ZEX      -0.130000
     14 C8          -0.6300    -0.7030    -2.3050 cf         1 ZEX      -0.155000
     15 C9          -1.8600    -0.6610    -3.1530 cf         1 ZEX      -0.131200
     16 C19         -3.1540    -0.8470    -2.4160 c3         1 ZEX      -0.038900
     17 C10         -1.7200    -1.2720    -4.5140 ce         1 ZEX      -0.124000
     18 C11         -3.0160    -1.1070    -5.3320 ce         1 ZEX      -0.155000
     19 C12         -2.9160    -2.0630    -6.5320 cf         1 ZEX      -0.149000
     20 C13         -4.2510    -2.2900    -7.1790 cf         1 ZEX      -0.114200
     21 C20         -5.4910    -2.3810    -6.3350 c3         1 ZEX      -0.037900
     22 C14         -4.2470    -2.9850    -8.5110 ce         1 ZEX      -0.133000
     23 C15         -5.2840    -2.3230    -9.4350 ce         1 ZEX      -0.146000
     24 C35         -5.2810    -2.9840   -10.8220 cf         1 ZEX      -0.213000
     25 C34         -6.0060    -2.0400   -11.8020 cf         1 ZEX      -0.293000
     26 C33         -6.3910    -2.7260   -13.0820 ce         1 ZEX      -0.005200
     27 C40         -5.4230    -3.7020   -13.7000 c3         1 ZEX      -0.067900
     28 C32         -7.3300    -1.9900   -13.9970 ce         1 ZEX      -0.133000
     29 C31         -7.9420    -2.9740   -15.0110 cf         1 ZEX      -0.209000
     30 C30         -8.9990    -2.2870   -15.8950 cf         1 ZEX      -0.266000
     31 C29         -9.1740    -3.0450   -17.1780 ce         1 ZEX       0.013800
     32 C39         -8.9250    -4.5300   -17.2490 c3         1 ZEX      -0.086900
     33 C28         -9.9130    -2.3590   -18.2880 ce         1 ZEX      -0.147000
     34 C27        -11.4150    -2.2050   -17.9680 cf         1 ZEX      -0.069000
     35 C21        -12.3430    -3.4570   -20.0690 c3         1 ZEX       0.007200
     36 C36        -13.3820    -4.4500   -19.5030 c3         1 ZEX      -0.089100
     37 C37        -11.0010    -4.2000   -20.1430 c3         1 ZEX      -0.089100
     38 C22        -12.6810    -3.0810   -21.5280 c3         1 ZEX      -0.046400
     39 C23        -13.8390    -2.1320   -21.6350 c3         1 ZEX       0.082100
     40 C24        -14.1620    -1.2050   -20.5470 c3         1 ZEX      -0.086500
     41 C25        -13.4270    -1.2490   -19.2310 c2         1 ZEX      -0.093200
     42 C38        -15.2870    -0.2250   -20.7200 c3         1 ZEX      -0.051100
     43 H171         2.0660    -1.0170    -1.8250 hc         1 ZEX       0.038533
     44 H172         1.3890    -2.0770    -0.5820 hc         1 ZEX       0.038533
     45 H173         3.0430    -1.4690    -0.4210 hc         1 ZEX       0.038533
     46 H41         -0.5080    -1.8780     2.6690 hc         1 ZEX       0.053200
     47 H42         -0.3100    -0.2240     3.2540 hc         1 ZEX       0.053200
     48 H3           1.3930    -1.8360     1.5590 h1         1 ZEX      -0.021300
     49 HO3          2.1240    -2.5730     3.1340 ho         1 ZEX       0.406000
     50 H21          1.9490     0.9800     1.8710 hc         1 ZEX       0.054700
     51 H22          3.1450    -0.2340     1.3920 hc         1 ZEX       0.054700
     52 H181        -2.6630    -1.2580     0.7670 hc         1 ZEX       0.041033
     53 H182        -2.6450    -0.2000     2.1850 hc         1 ZEX       0.041033
     54 H183        -2.6020     0.4970     0.5600 hc         1 ZEX       0.041033
     55 H161         1.4990     2.1350    -0.3110 hc         1 ZEX       0.038533
     56 H162         3.0950     1.3900    -0.4740 hc         1 ZEX       0.038533
     57 H163         1.8930     1.1950    -1.7570 hc         1 ZEX       0.038533
     58 H7          -1.6340     1.0280    -1.1920 ha         1 ZEX       0.154000
     59 H8          -0.0810    -1.6170    -2.1140 ha         1 ZEX       0.157000
     60 H191        -2.9840    -1.4570    -1.5370 hc         1 ZEX       0.041700
     61 H192        -3.8710    -1.3380    -3.0630 hc         1 ZEX       0.041700
     62 H193        -3.5410     0.1190    -2.1150 hc         1 ZEX       0.041700
     63 H10         -0.8010    -1.7130    -4.8800 ha         1 ZEX       0.150000
     64 H11         -3.9450    -0.6770    -4.9780 ha         1 ZEX       0.166000
     65 H12         -2.0610    -2.7100    -6.6840 ha         1 ZEX       0.149000
     66 H201        -5.2400    -2.8030    -5.3700 hc         1 ZEX       0.045367
     67 H202        -5.9080    -1.3900    -6.1990 hc         1 ZEX       0.045367
     68 H203        -6.2180    -3.0140    -6.8280 hc         1 ZEX       0.045367
     69 H14         -3.3040    -3.3040    -8.9390 ha         1 ZEX       0.121000
     70 H15         -5.7220    -1.3490    -9.2560 ha         1 ZEX       0.172000
     71 H35         -4.6090    -3.7870   -11.1010 ha         1 ZEX       0.122000
     72 H34         -4.9630    -1.7510   -11.8300 ha         1 ZEX       0.203000
     73 H401        -4.4540    -3.5970   -13.2270 hc         1 ZEX       0.051033
     74 H402        -5.7870    -4.7120   -13.5560 hc         1 ZEX       0.051033
     75 H403        -5.3320    -3.4980   -14.7600 hc         1 ZEX       0.051033
     76 H32         -7.6170    -0.9490   -13.9140 ha         1 ZEX       0.186000
     77 H31         -7.7110    -4.0330   -15.0270 ha         1 ZEX       0.122000
     78 H30         -9.4630    -2.8010   -15.0610 ha         1 ZEX       0.218000
     79 H391        -8.9050    -4.8430   -18.2860 hc         1 ZEX       0.059033
     80 H392        -7.9730    -4.7590   -16.7850 hc         1 ZEX       0.059033
     81 H393        -9.7160    -5.0540   -16.7280 hc         1 ZEX       0.059033
     82 H28         -9.5800    -2.4550   -19.3140 ha         1 ZEX       0.161000
     83 H27        -11.8170    -2.5770   -17.0330 ha         1 ZEX       0.150000
     84 H361       -12.9230    -5.0510   -18.7270 hc         1 ZEX       0.040367
     85 H362       -14.2180    -3.9010   -19.0870 hc         1 ZEX       0.040367
     86 H363       -13.7350    -5.0960   -20.2980 hc         1 ZEX       0.040367
     87 H371       -11.1250    -5.1150   -20.7110 hc         1 ZEX       0.040367
     88 H372       -10.6640    -4.4390   -19.1420 hc         1 ZEX       0.040367
     89 H373       -10.2660    -3.5700   -20.6300 hc         1 ZEX       0.040367
     90 H221       -11.8100    -2.6190   -21.9770 hc         1 ZEX       0.047200
     91 H222       -12.9220    -3.9860   -22.0730 hc         1 ZEX       0.047200
     92 H23        -14.4780    -2.8730   -21.1720 h1         1 ZEX       0.034700
     93 H24        -13.4470    -0.4880   -20.9340 hc         1 ZEX       0.041700
     94 H25        -13.9490    -1.0200   -18.3100 ha         1 ZEX       0.167000
     95 H381       -15.2070     0.2490   -21.6910 hc         1 ZEX       0.040033
     96 H382       -16.2340    -0.7460   -20.6480 hc         1 ZEX       0.040033
     97 H383       -15.2300     0.5300   -19.9450 hc         1 ZEX       0.040033
     98 H1         -14.1230    -1.8470   -23.5140 ho         1 ZEX       0.382000
@<TRIPOS>BOND
     1     1     7 1
     2     1     8 2
     3     1    13 1
     4     2     7 1
     5     2    43 1
     6     2    44 1
     7     2    45 1
     8     3     4 1
     9     3     8 1
    10     3    46 1
    11     3    47 1
    12     4     5 1
    13     4     6 1
    14     4    48 1
    15     5    49 1
    16     6     7 1
    17     6    50 1
    18     6    51 1
    19     7    10 1
    20     8     9 1
    21     9    52 1
    22     9    53 1
    23     9    54 1
    24    10    55 1
    25    10    56 1
    26    10    57 1
    27    11    39 1
    28    11    98 1
    29    12    34 1
    30    12    35 1
    31    12    41 2
    32    13    14 2
    33    13    58 1
    34    14    15 1
    35    14    59 1
    36    15    16 1
    37    15    17 2
    38    16    60 1
    39    16    61 1
    40    16    62 1
    41    17    18 1
    42    17    63 1
    43    18    19 2
    44    18    64 1
    45    19    20 1
    46    19    65 1
    47    20    21 1
    48    20    22 2
    49    21    66 1
    50    21    67 1
    51    21    68 1
    52    22    23 1
    53    22    69 1
    54    23    24 2
    55    23    70 1
    56    24    25 1
    57    24    71 1
    58    25    26 2
    59    25    72 1
    60    26    27 1
    61    26    28 1
    62    27    73 1
    63    27    74 1
    64    27    75 1
    65    28    29 2
    66    28    76 1
    67    29    30 1
    68    29    77 1
    69    30    31 2
    70    30    78 1
    71    31    32 1
    72    31    33 1
    73    32    79 1
    74    32    80 1
    75    32    81 1
    76    33    34 2
    77    33    82 1
    78    34    83 1
    79    35    36 1
    80    35    37 1
    81    35    38 1
    82    36    84 1
    83    36    85 1
    84    36    86 1
    85    37    87 1
    86    37    88 1
    87    37    89 1
    88    38    39 1
    89    38    90 1
    90    38    91 1
    91    39    40 1
    92    39    92 1
    93    40    41 1
    94    40    42 1
    95    40    93 1
    96    41    94 1
    97    42    95 1
    98    42    96 1
    99    42    97 1
@<TRIPOS>SUBSTRUCTURE
     1 ZEX         1 TEMP              0 ****  ****    0 ROOT
