@<TRIPOS>MOLECULE
molecule
   29    30     1     0     0
SMALL
bcc


@<TRIPOS>ATOM
      1 C15          0.0000     0.0000     0.0000 c3         1 ZEZ      -0.049900
      2 C13          1.5080     0.0000     0.0000 c2         1 ZEZ      -0.093400
      3 C14          2.2590     0.0000     1.3060 c3         1 ZEZ       0.167600
      4 O16          1.8020     1.0820     2.1190 oh         1 ZEZ      -0.604800
      5 C12          2.1620    -0.0010    -1.1340 c2         1 ZEZ      -0.204200
      6 C11          3.6590    -0.1790    -1.1390 c3         1 ZEZ       0.264000
      7 N10          4.0170    -1.2770    -2.0400 nu         1 ZEZ      -0.887900
      8 C1           5.3450    -1.6280    -2.2100 ca         1 ZEZ       0.788200
      9 C6           5.7060    -2.6800    -3.0690 ca         1 ZEZ      -0.214200
     10 N7           5.0240    -3.5370    -3.8670 nc         1 ZEZ      -0.582100
     11 C8           5.8610    -4.3340    -4.4630 cd         1 ZEZ       0.409700
     12 N9           7.1370    -4.0370    -4.0850 na         1 ZEZ      -0.359000
     13 C5           7.0710    -2.9900    -3.2010 ca         1 ZEZ       0.471800
     14 N4           7.9620    -2.2840    -2.5130 nb         1 ZEZ      -0.799000
     15 C3           7.5770    -1.3080    -1.7190 ca         1 ZEZ       0.743900
     16 N2           6.3080    -0.9760    -1.5670 nb         1 ZEZ      -0.838000
     17 H15         -0.3610    -0.1890     1.0040 hc         1 ZEZ       0.047033
     18 H15A        -0.3610    -0.7750    -0.6650 hc         1 ZEZ       0.047033
     19 H15B        -0.3610     0.9640    -0.3380 hc         1 ZEZ       0.047033
     20 H14          2.0870    -0.9370     1.8220 h1         1 ZEZ       0.034200
     21 H14A         3.3190     0.1160     1.1130 h1         1 ZEZ       0.034200
     22 HO16         2.2690     1.0800     2.9380 ho         1 ZEZ       0.404000
     23 H12          1.6180    -0.0010    -2.0710 ha         1 ZEZ       0.135000
     24 H11          4.1300     0.7350    -1.4800 h1         1 ZEZ       0.060700
     25 H11A         3.9990    -0.4080    -0.1370 h1         1 ZEZ       0.060700
     26 HN10         3.3030    -1.7610    -2.5470 hn         1 ZEZ       0.464800
     27 H8           5.5850    -5.1190    -5.1570 h5         1 ZEZ       0.078800
     28 HN9          7.9690    -4.4980    -4.3960 hn         1 ZEZ       0.313700
     29 H3           8.3310    -0.7500    -1.1760 h5         1 ZEZ       0.061100
@<TRIPOS>BOND
     1     1     2 1
     2     2     3 1
     3     2     5 2
     4     3     4 1
     5     5     6 1
     6     6     7 1
     7     7     8 1
     8     8     9 ar
     9     8    16 ar
    10     9    10 1
    11     9    13 ar
    12    10    11 2
    13    11    12 1
    14    12    13 1
    15    13    14 ar
    16    14    15 ar
    17    15    16 ar
    18     1    17 1
    19     1    18 1
    20     1    19 1
    21     3    20 1
    22     3    21 1
    23     4    22 1
    24     5    23 1
    25     6    24 1
    26     6    25 1
    27     7    26 1
    28    11    27 1
    29    12    28 1
    30    15    29 1
@<TRIPOS>SUBSTRUCTURE
     1 ZEZ         1 TEMP              0 ****  ****    0 ROOT
