@<TRIPOS>MOLECULE
ZEZ
   29    30     1     0     0
SMALL
bcc


@<TRIPOS>ATOM
      1 C15          0.0000     0.0000     0.0000 c3         1 ZEZ       0.032100
      2 C13          1.5080     0.0000     0.0000 c2         1 ZEZ       0.120600
      3 C14          2.2590     0.0000     1.3060 c3         1 ZEZ       0.169600
      4 O16          1.8020     1.0820     2.1190 oh         1 ZEZ      -0.580800
      5 C12          2.1620    -0.0010    -1.1340 c2         1 ZEZ      -0.557200
      6 C11          3.6590    -0.1790    -1.1390 c3         1 ZEZ       0.147000
      7 N10          4.0170    -1.2770    -2.0400 nu         1 ZEZ      -0.417900
      8 C1           5.3450    -1.6280    -2.2100 ca         1 ZEZ       0.596200
      9 C6           5.7060    -2.6800    -3.0690 ca         1 ZEZ      -0.243200
     10 N7           5.0240    -3.5370    -3.8670 nc         1 ZEZ      -0.481100
     11 C8           5.8610    -4.3340    -4.4630 cd         1 ZEZ       0.212700
     12 N9           7.1370    -4.0370    -4.0850 na         1 ZEZ       0.176000
     13 C5           7.0710    -2.9900    -3.2010 ca         1 ZEZ       0.250800
     14 N4           7.9620    -2.2840    -2.5130 nb         1 ZEZ      -0.689000
     15 C3           7.5770    -1.3080    -1.7190 ca         1 ZEZ       0.695900
     16 N2           6.3080    -0.9760    -1.5670 nb         1 ZEZ      -0.765000
     17 H15         -0.3610    -0.3080    -0.9740 hc         1 ZEZ       0.027033
     18 H15A        -0.3610    -0.6890     0.7540 hc         1 ZEZ       0.027033
     19 H15B        -0.3610     0.9970     0.2200 hc         1 ZEZ       0.027033
     20 H14          2.0870    -0.9370     1.8220 h1         1 ZEZ       0.012700
     21 H14A         3.3190     0.1160     1.1130 h1         1 ZEZ       0.012700
     22 HO16         2.2010     1.0260     2.9710 ho         1 ZEZ       0.400000
     23 H12          2.8220     0.8440    -0.9820 ha         1 ZEZ       0.308000
     24 H11          3.9990    -0.4080    -0.1370 h1         1 ZEZ       0.017700
     25 H11A         4.1300     0.7350    -1.4800 h1         1 ZEZ       0.017700
     26 HN10         3.3030    -1.7610    -2.5470 hn         1 ZEZ       0.324800
     27 H8           5.5850    -5.1190    -5.1570 h5         1 ZEZ       0.030800
     28 HN9          7.9690    -4.4980    -4.3960 hn         1 ZEZ       0.131700
     29 H3           8.3310    -0.7500    -1.1760 h5         1 ZEZ      -0.006900
@<TRIPOS>BOND
     1     1     2 1   
     2     1    17 1   
     3     1    18 1   
     4     1    19 1   
     5     2     3 1   
     6     2     5 2   
     7     3     4 1   
     8     3    20 1   
     9     3    21 1   
    10     4    22 1   
    11     5     6 1   
    12     5    23 1   
    13     6     7 1   
    14     6    24 1   
    15     6    25 1   
    16     7     8 1   
    17     7    26 1   
    18     8     9 ar  
    19     8    16 ar  
    20     9    10 1   
    21     9    13 ar  
    22    10    11 2   
    23    11    12 1   
    24    11    27 1   
    25    12    13 1   
    26    12    28 1   
    27    13    14 ar  
    28    14    15 ar  
    29    15    16 ar  
    30    15    29 1   
@<TRIPOS>SUBSTRUCTURE
     1 ZEZ         1 TEMP              0 ****  ****    0 ROOT
