@<TRIPOS>MOLECULE
ZF0
   21    21     1     0     0
SMALL
bcc


@<TRIPOS>ATOM
      1 N3           0.0000     0.0000     0.0000 nz         1 ZF0       0.074400
      2 C9           1.4680     0.0000     0.0000 c3         1 ZF0       0.039100
      3 C10          1.9700     0.0000     1.4210 ca         1 ZF0      -0.211300
      4 C11          2.2020    -1.1970     2.0730 ca         1 ZF0      -0.075000
      5 C12          2.6620    -1.1970     3.3760 ca         1 ZF0      -0.064300
      6 C13          2.9130    -2.5010     4.0880 c3         1 ZF0       0.057200
      7 C14          2.8930     0.0010     4.0270 ca         1 ZF0      -0.042000
      8 C15          2.6630     1.1980     3.3750 ca         1 ZF0      -0.072000
      9 C16          2.2060     1.1970     2.0710 ca         1 ZF0      -0.077000
     10 HN3         -0.3340    -0.1020    -0.9380 hn         1 ZF0       0.222800
     11 H9           1.8290    -0.8850    -0.5110 hx         1 ZF0       0.081700
     12 H9A          1.8290     0.8840    -0.5110 hx         1 ZF0       0.081700
     13 H11          2.0350    -2.1350     1.5570 ha         1 ZF0       0.111000
     14 H13          1.9660    -2.9750     4.3170 hc         1 ZF0       0.022033
     15 H13A         3.4540    -2.3130     5.0070 hc         1 ZF0       0.022033
     16 H13B         3.4980    -3.1540     3.4510 hc         1 ZF0       0.022033
     17 H14          3.2520     0.0000     5.0490 ha         1 ZF0       0.128000
     18 H15          2.8450     2.1360     3.8850 ha         1 ZF0       0.126000
     19 H16          2.0260     2.1360     1.5600 ha         1 ZF0       0.108000
     20 H2          -0.3340    -0.7610     0.5580 hn         1 ZF0       0.222800
     21 H33         -0.3340     0.8640     0.3800 hn         1 ZF0       0.222800
@<TRIPOS>BOND
     1     1     2 1   
     2     1    10 1   
     3     1    20 1   
     4     1    21 1   
     5     2     3 1   
     6     2    11 1   
     7     2    12 1   
     8     3     4 ar  
     9     3     9 ar  
    10     4     5 ar  
    11     4    13 1   
    12     5     6 1   
    13     5     7 ar  
    14     6    14 1   
    15     6    15 1   
    16     6    16 1   
    17     7     8 ar  
    18     7    17 1   
    19     8     9 ar  
    20     8    18 1   
    21     9    19 1   
@<TRIPOS>SUBSTRUCTURE
     1 ZF0         1 TEMP              0 ****  ****    0 ROOT
