@<TRIPOS>MOLECULE
molecule
   45    45     1     0     0
SMALL
bcc


@<TRIPOS>ATOM
      1 C1           0.0000     0.0000     0.0000 ca         1 ZFR      -0.155500
      2 C2           1.3850     0.0000     0.0000 ca         1 ZFR       0.119600
      3 C3           2.0820     0.0000     1.2000 ca         1 ZFR      -0.184000
      4 C4           1.3930    -0.0010     2.4050 ca         1 ZFR       0.119600
      5 C5           0.0080    -0.0000     2.4130 ca         1 ZFR      -0.155500
      6 C6          -0.6950     0.0050     1.2090 ca         1 ZFR      -0.026800
      7 C10        -10.3630     5.3060    -3.5730 c3         1 ZFR       0.145100
      8 C11        -11.8620     5.6080    -3.6260 c3         1 ZFR      -0.120100
      9 C6P         -6.8950     2.3640    -1.5480 c          1 ZFR       0.561100
     10 C7P         -8.3770     2.5910    -1.7010 c3         1 ZFR      -0.183400
     11 C8P         -8.6180     3.8340    -2.5600 c3         1 ZFR      -0.072400
     12 C9P        -10.1220     4.0630    -2.7140 c3         1 ZFR      -0.079400
     13 O10         -9.8790     5.0700    -4.8980 oh         1 ZFR      -0.606800
     14 C5P         -6.3900     1.1960    -0.7420 c3         1 ZFR      -0.184400
     15 C4P         -4.8590     1.1970    -0.7470 c3         1 ZFR      -0.068400
     16 C3P         -4.3460     0.0110     0.0720 c3         1 ZFR      -0.052200
     17 C2P         -2.8400     0.0110     0.0680 c2         1 ZFR      -0.153200
     18 C1P         -2.1740     0.0050     1.2140 ce         1 ZFR      -0.126200
     19 O4           2.0790    -0.0010     3.5770 oh         1 ZFR      -0.519100
     20 O2           2.0640    -0.0000    -1.1780 oh         1 ZFR      -0.519100
     21 H1          -0.5420     0.0020    -0.9380 ha         1 ZFR       0.144500
     22 H2           3.1650    -0.0000     1.1960 ha         1 ZFR       0.149000
     23 H3          -0.5280     0.0010     3.3540 ha         1 ZFR       0.144500
     24 H4          -9.8390     6.1500    -3.1420 h1         1 ZFR       0.030700
     25 H6         -12.0330     6.4840    -4.2400 hc         1 ZFR       0.040700
     26 H7         -12.3870     4.7610    -4.0500 hc         1 ZFR       0.040700
     27 H8          -8.8260     1.7290    -2.1790 hc         1 ZFR       0.063200
     28 H9          -8.8220     2.7350    -0.7240 hc         1 ZFR       0.063200
     29 H10         -8.1680     4.6960    -2.0820 hc         1 ZFR       0.061200
     30 H11         -8.1720     3.6890    -3.5370 hc         1 ZFR       0.061200
     31 H12        -10.5670     4.2080    -1.7370 hc         1 ZFR       0.049200
     32 H13        -10.5720     3.2010    -3.1920 hc         1 ZFR       0.049200
     33 H14         -9.6430     5.8910    -5.2970 ho         1 ZFR       0.402000
     34 H15         -6.7470     1.2800     0.2780 hc         1 ZFR       0.063700
     35 H16         -6.7520     0.2730    -1.1770 hc         1 ZFR       0.063700
     36 H17         -4.5020     1.1140    -1.7660 hc         1 ZFR       0.059200
     37 H18         -4.4970     2.1200    -0.3110 hc         1 ZFR       0.059200
     38 H19         -4.7050     0.0930     1.0910 hc         1 ZFR       0.046700
     39 H20         -4.7080    -0.9130    -0.3640 hc         1 ZFR       0.046700
     40 H21         -2.3010     0.0170    -0.8720 ha         1 ZFR       0.133000
     41 H22         -2.7130    -0.0010     2.1530 ha         1 ZFR       0.132000
     42 H23          2.2360    -0.8900     3.8500 ho         1 ZFR       0.419000
     43 H24          2.2840    -0.8860    -1.4140 ho         1 ZFR       0.419000
     44 H5         -12.2280     5.7940    -2.6230 hc         1 ZFR       0.040700
     45 O6P         -6.1120     3.1190    -2.0740 o          1 ZFR      -0.521100
@<TRIPOS>BOND
     1    15    14 1
     2    15    16 1
     3    14     9 1
     4     9    45 2
     5     9    10 1
     6    16    17 1
     7    17    18 2
     8    10    11 1
     9    19     4 1
    10    11    12 1
    11     5     4 ar
    12     5     6 ar
    13    18     6 1
    14     4     3 ar
    15     6     1 ar
    16    12     7 1
    17     8     7 1
    18     3     2 ar
    19     7    13 1
    20     1     2 ar
    21     2    20 1
    22     1    21 1
    23     3    22 1
    24     5    23 1
    25     7    24 1
    26     8    44 1
    27     8    25 1
    28     8    26 1
    29    10    27 1
    30    10    28 1
    31    11    29 1
    32    11    30 1
    33    12    31 1
    34    12    32 1
    35    13    33 1
    36    14    34 1
    37    14    35 1
    38    15    36 1
    39    15    37 1
    40    16    38 1
    41    16    39 1
    42    17    40 1
    43    18    41 1
    44    19    42 1
    45    20    43 1
@<TRIPOS>SUBSTRUCTURE
     1 ZFR         1 TEMP              0 ****  ****    0 ROOT
