@<TRIPOS>MOLECULE
ZG1
   59    63     1     0     0
SMALL
bcc


@<TRIPOS>ATOM
      1 C1          0.0040    0.0640   -0.1780 c3        1 ZG1     -0.123100
      2 C2          1.5150    0.1010   -0.0550 c3        1 ZG1      0.053300
      3 N3          2.0070   -0.0220    1.3190 na        1 ZG1      0.032200
      4 N4          1.9570    0.9660    2.2240 nc        1 ZG1     -0.433100
      5 C5          2.3940    0.5110    3.4170 cd        1 ZG1      0.329800
      6 C6          2.7430   -0.8900    3.3100 ca        1 ZG1     -0.339200
      7 C7          3.2290   -1.9090    4.1370 ca        1 ZG1      0.102600
      8 N8          3.4910   -1.6340    5.5500 n4        1 ZG1     -0.643400
      9 C9          4.9040   -1.1400    5.8130 c3        1 ZG1      0.135500
     10 C10         5.3060   -1.4330    7.2630 c3        1 ZG1     -0.143900
     11 C11         6.7100   -0.8890    7.5060 c3        1 ZG1      0.126900
     12 O12         6.7830    0.4990    7.2140 os        1 ZG1     -0.387600
     13 C13         6.4680    0.7910    5.8620 c3        1 ZG1      0.126900
     14 C14         5.0460    0.3540    5.5230 c3        1 ZG1     -0.143900
     15 C15         3.4130   -3.1840    3.5800 ca        1 ZG1     -0.247800
     16 C16         3.0980   -3.3880    2.1950 ca        1 ZG1      0.481200
     17 N17         2.6400   -2.4580    1.3630 nb        1 ZG1     -0.604000
     18 C18         2.4590   -1.2180    1.9100 ca        1 ZG1      0.450800
     19 C19         3.8630   -4.3240    4.3470 cc        1 ZG1      0.515900
     20 O20         4.8370   -4.1010    5.3810 os        1 ZG1     -0.194100
     21 N21         5.0800   -5.2470    5.9790 nc        1 ZG1     -0.331300
     22 C22         4.3160   -6.1890    5.3710 cd        1 ZG1      0.581300
     23 C23         4.1690   -7.6110    5.7930 c3        1 ZG1     -0.184700
     24 N24         3.5420   -5.6130    4.3150 nd        1 ZG1     -0.612000
     25 N25         2.7740   -8.9090    7.3800 n         1 ZG1     -0.464800
     26 C26         3.0990   -7.6780    6.8810 c         1 ZG1      0.672100
     27 C27         1.7800   -9.0960    8.4250 c3        1 ZG1      0.093000
     28 C28         3.3770  -10.1600    6.9670 c3        1 ZG1      0.093000
     29 O29         2.5450   -6.6360    7.2940 o         1 ZG1     -0.630100
     30 C30         1.7260  -10.6000    8.7350 c3        1 ZG1     -0.089400
     31 C31         2.7370  -11.2750    7.8120 c3        1 ZG1     -0.089400
     32 H1         -0.2570    0.1690   -1.2610 hc        1 ZG1      0.063700
     33 H1A        -0.4720    0.9040    0.3840 hc        1 ZG1      0.063700
     34 H1B        -0.4150   -0.9010    0.1950 hc        1 ZG1      0.063700
     35 H2          1.9720   -0.7470   -0.6410 h1        1 ZG1      0.090200
     36 H2A         1.9050    1.0770   -0.4660 h1        1 ZG1      0.090200
     37 H5          2.4510    1.1620    4.2920 h4        1 ZG1      0.067800
     38 HN8         3.3540   -2.5030    6.0920 hn        1 ZG1      0.465800
     39 H9          5.5760   -1.7330    5.1210 hx        1 ZG1      0.120700
     40 H10         5.3070   -2.5390    7.4540 hc        1 ZG1      0.078950
     41 H10A        4.5930   -0.9420    7.9760 hc        1 ZG1      0.078950
     42 H11         6.9730   -0.9570    8.5970 h1        1 ZG1      0.077950
     43 H11A        7.4610   -1.4540    6.8940 h1        1 ZG1      0.077950
     44 H13         7.2040    0.2950    5.1750 h1        1 ZG1      0.077950
     45 H13A        6.5640    1.9080    5.7880 h1        1 ZG1      0.077950
     46 H14         4.8380    0.5710    4.4430 hc        1 ZG1      0.078950
     47 H14A        4.3270    0.9440    6.1510 hc        1 ZG1      0.078950
     48 H16         3.2320   -4.4010    1.7560 h4        1 ZG1      0.077100
     49 H23         3.8690   -8.2470    4.9170 hc        1 ZG1      0.105700
     50 H23A        5.1440   -7.9990    6.1950 hc        1 ZG1      0.105700
     51 H27         2.0730   -8.4990    9.3320 h1        1 ZG1      0.051950
     52 H27A        0.7850   -8.7140    8.0670 h1        1 ZG1      0.051950
     53 H28         3.1900  -10.3330    5.8700 h1        1 ZG1      0.051950
     54 H28A        4.4900  -10.1240    7.1280 h1        1 ZG1      0.051950
     55 H30         1.9810  -10.7820    9.8070 hc        1 ZG1      0.062700
     56 H30A        0.6960  -10.9930    8.5550 hc        1 ZG1      0.062700
     57 H31         2.2370  -12.0210    7.1480 hc        1 ZG1      0.062700
     58 H31A        3.5220  -11.8090    8.4010 hc        1 ZG1      0.062700
     59 H82         2.8210   -0.9270    5.8790 hn        1 ZG1      0.465800
@<TRIPOS>BOND
     1    1    2 1
     2    1   32 1
     3    1   33 1
     4    1   34 1
     5    2    3 1
     6    2   35 1
     7    2   36 1
     8    3    4 1
     9    3   18 1
    10    4    5 2
    11    5    6 1
    12    5   37 1
    13    6    7 ar
    14    6   18 ar
    15    7    8 1
    16    7   15 ar
    17    8    9 1
    18    8   38 1
    19    8   59 1
    20    9   10 1
    21    9   14 1
    22    9   39 1
    23   10   11 1
    24   10   40 1
    25   10   41 1
    26   11   12 1
    27   11   42 1
    28   11   43 1
    29   12   13 1
    30   13   14 1
    31   13   44 1
    32   13   45 1
    33   14   46 1
    34   14   47 1
    35   15   16 ar
    36   15   19 1
    37   16   17 ar
    38   16   48 1
    39   17   18 ar
    40   19   20 1
    41   19   24 2
    42   20   21 1
    43   21   22 2
    44   22   23 1
    45   22   24 1
    46   23   26 1
    47   23   49 1
    48   23   50 1
    49   25   26 1
    50   25   27 1
    51   25   28 1
    52   26   29 2
    53   27   30 1
    54   27   51 1
    55   27   52 1
    56   28   31 1
    57   28   53 1
    58   28   54 1
    59   30   31 1
    60   30   55 1
    61   30   56 1
    62   31   57 1
    63   31   58 1
@<TRIPOS>SUBSTRUCTURE
     1 ZG1         1 TEMP              0 ****  ****    0 ROOT
