@<TRIPOS>MOLECULE
ZG2
   73    78     1     0     0
SMALL
bcc


@<TRIPOS>ATOM
      1 C1          0.7650   -0.1840   -0.7740 c3        1 ZG2     -0.122100
      2 C2          2.2340   -0.1640   -0.3970 c3        1 ZG2      0.054300
      3 N3          2.4820   -0.1550    1.0450 na        1 ZG2      0.030200
      4 N4          2.3160    0.9210    1.8280 nc        1 ZG2     -0.441100
      5 C5          2.5270    0.5780    3.1160 cd        1 ZG2      0.328800
      6 C6          2.8340   -0.8340    3.2070 ca        1 ZG2     -0.338200
      7 C7          3.1340   -1.7710    4.2070 ca        1 ZG2      0.096600
      8 N8          3.1670   -1.3430    5.6050 n4        1 ZG2     -0.639400
      9 C9          4.5300   -0.8480    6.0500 c3        1 ZG2      0.139500
     10 C10         4.5990   -0.8000    7.5800 c3        1 ZG2     -0.145900
     11 C11         5.9750   -0.2940    7.9920 c3        1 ZG2      0.127900
     12 O12         6.2510    0.9800    7.4250 os        1 ZG2     -0.393600
     13 C13         6.2220    0.9690    6.0060 c3        1 ZG2      0.127900
     14 C14         4.8570    0.5340    5.4830 c3        1 ZG2     -0.145900
     15 C18         3.3550   -3.0990    3.8100 ca        1 ZG2     -0.222800
     16 C19         3.2780   -3.4350    2.4180 ca        1 ZG2      0.465200
     17 N20         3.0060   -2.5880    1.4320 nb        1 ZG2     -0.606000
     18 C21         2.7800   -1.2950    1.8200 ca        1 ZG2      0.440800
     19 C22         3.6110   -4.1460    4.7740 cc        1 ZG2      0.493900
     20 N23         4.1190   -4.0550    6.0070 nd        1 ZG2     -0.670000
     21 C24         3.9670   -5.3170    6.5930 cd        1 ZG2      0.257300
     22 C25         4.2710   -5.5800    8.0150 c3        1 ZG2     -0.173700
     23 C26         3.6110   -4.5670    8.9450 c         1 ZG2      0.683100
     24 N27         3.6870   -4.8090   10.2920 n         1 ZG2     -0.466800
     25 C28         4.2680   -5.9920   10.8940 c3        1 ZG2      0.091500
     26 C29         3.4210   -6.1900    5.6440 cc        1 ZG2      0.227700
     27 O30         3.1960   -5.4550    4.4730 os        1 ZG2     -0.355800
     28 C31         3.0980   -7.6260    5.5730 c3        1 ZG2     -0.074400
     29 C32         2.3000   -8.1020    6.7380 ca        1 ZG2     -0.106300
     30 C33         2.8910   -8.9180    7.7100 ca        1 ZG2     -0.122500
     31 C34         2.1300   -9.4050    8.7720 ca        1 ZG2     -0.124500
     32 C35         0.7780   -9.0790    8.8720 ca        1 ZG2     -0.113000
     33 C36         0.9410   -7.7800    6.8400 ca        1 ZG2     -0.122500
     34 C37         0.1850   -8.2660    7.9050 ca        1 ZG2     -0.124500
     35 C38         3.0710   -3.9400   11.2810 c3        1 ZG2      0.091500
     36 C39         3.2790   -4.5940   12.6560 c3        1 ZG2     -0.089900
     37 C40         4.0700   -5.8770   12.4150 c3        1 ZG2     -0.089900
     38 O41         3.0420   -3.5290    8.5310 o         1 ZG2     -0.669100
     39 H1          0.2320    0.7170   -0.3860 hc        1 ZG2      0.062367
     40 H1A         0.6950   -0.1860   -1.8900 hc        1 ZG2      0.062367
     41 H1B         0.2540   -1.0980   -0.3860 hc        1 ZG2      0.062367
     42 H2          2.7220    0.7570   -0.8290 h1        1 ZG2      0.088700
     43 H2A         2.7520   -1.0760   -0.8100 h1        1 ZG2      0.088700
     44 H5          2.4630    1.3120    3.9220 h4        1 ZG2      0.065800
     45 HN8         2.8990   -2.1260    6.2330 hn        1 ZG2      0.473300
     46 H9          5.2820   -1.6020    5.6660 hx        1 ZG2      0.120700
     47 H10         4.4270   -1.8210    8.0210 hc        1 ZG2      0.081950
     48 H10A        3.8160   -0.1060    7.9830 hc        1 ZG2      0.081950
     49 H11         6.7710   -1.0280    7.6930 h1        1 ZG2      0.072450
     50 H11A        6.0130   -0.1170    9.1000 h1        1 ZG2      0.072450
     51 H13         6.4340    2.0330    5.7150 h1        1 ZG2      0.072450
     52 H13A        7.0260    0.2940    5.6090 h1        1 ZG2      0.072450
     53 H14         4.0870    1.2810    5.8100 hc        1 ZG2      0.081950
     54 H14A        4.8770    0.5130    4.3620 hc        1 ZG2      0.081950
     55 H19         3.4500   -4.4910    2.1180 h4        1 ZG2      0.069100
     56 H25         3.9130   -6.6190    8.2680 hc        1 ZG2      0.094200
     57 H25A        5.3830   -5.5420    8.1840 hc        1 ZG2      0.094200
     58 H28         3.7630   -6.9180   10.4990 h1        1 ZG2      0.050700
     59 H28A        5.3610   -6.0540   10.6340 h1        1 ZG2      0.050700
     60 H31         4.0680   -8.1970    5.5060 hc        1 ZG2      0.087700
     61 H31A        2.5270   -7.8300    4.6220 hc        1 ZG2      0.087700
     62 H33         3.9540   -9.1910    7.6270 ha        1 ZG2      0.135000
     63 H34         2.5970  -10.0560    9.5260 ha        1 ZG2      0.143500
     64 H35         0.1770   -9.4690    9.7080 ha        1 ZG2      0.145000
     65 H36         0.4690   -7.1490    6.0730 ha        1 ZG2      0.135000
     66 H37        -0.8840   -8.0130    7.9790 ha        1 ZG2      0.143500
     67 H38         1.9790   -3.8130   11.0470 h1        1 ZG2      0.050700
     68 H38A        3.5530   -2.9250   11.2350 h1        1 ZG2      0.050700
     69 H39         3.8360   -3.9020   13.3340 hc        1 ZG2      0.062700
     70 H39A        2.2920   -4.8170   13.1300 hc        1 ZG2      0.062700
     71 H40         5.0610   -5.8380   12.9310 hc        1 ZG2      0.062700
     72 H40A        3.5160   -6.7680   12.8000 hc        1 ZG2      0.062700
     73 H82         2.4870   -0.5820    5.7260 hn        1 ZG2      0.473300
@<TRIPOS>BOND
     1    1    2 1
     2    1   39 1
     3    1   40 1
     4    1   41 1
     5    2    3 1
     6    2   42 1
     7    2   43 1
     8    3    4 1
     9    3   18 1
    10    4    5 2
    11    5    6 1
    12    5   44 1
    13    6    7 ar
    14    6   18 ar
    15    7    8 1
    16    7   15 ar
    17    8    9 1
    18    8   45 1
    19    8   73 1
    20    9   10 1
    21    9   14 1
    22    9   46 1
    23   10   11 1
    24   10   47 1
    25   10   48 1
    26   11   12 1
    27   11   49 1
    28   11   50 1
    29   12   13 1
    30   13   14 1
    31   13   51 1
    32   13   52 1
    33   14   53 1
    34   14   54 1
    35   15   16 ar
    36   15   19 1
    37   16   17 ar
    38   16   55 1
    39   17   18 ar
    40   19   20 2
    41   19   27 1
    42   20   21 1
    43   21   22 1
    44   21   26 2
    45   22   23 1
    46   22   56 1
    47   22   57 1
    48   23   24 1
    49   23   38 2
    50   24   25 1
    51   24   35 1
    52   25   37 1
    53   25   58 1
    54   25   59 1
    55   26   27 1
    56   26   28 1
    57   28   29 1
    58   28   60 1
    59   28   61 1
    60   29   30 ar
    61   29   33 ar
    62   30   31 ar
    63   30   62 1
    64   31   32 ar
    65   31   63 1
    66   32   34 ar
    67   32   64 1
    68   33   34 ar
    69   33   65 1
    70   34   66 1
    71   35   36 1
    72   35   67 1
    73   35   68 1
    74   36   37 1
    75   36   69 1
    76   36   70 1
    77   37   71 1
    78   37   72 1
@<TRIPOS>SUBSTRUCTURE
     1 ZG2         1 TEMP              0 ****  ****    0 ROOT
