@<TRIPOS>MOLECULE
molecule
   27    27     1     0     0
SMALL
bcc


@<TRIPOS>ATOM
      1 C1           0.0000     0.0000     0.0000 c3         1 ZGB      -0.031800
      2 O1           1.5240    -0.0130    -2.3790 os         1 ZGB      -0.339900
      3 C2           1.5070     0.0000     0.0000 ca         1 ZGB      -0.114300
      4 O2           5.6400    -0.3940     4.7760 o          1 ZGB      -0.854800
      5 C3           2.1980     0.0000     1.1960 ca         1 ZGB      -0.098000
      6 O3           5.6720    -2.6030     4.8360 o          1 ZGB      -0.854800
      7 C4           2.2010    -0.0060    -1.2000 ca         1 ZGB       0.106100
      8 C5           2.3040    -0.0190    -3.5760 c3         1 ZGB       0.132700
      9 C6           3.5890    -0.0070    -1.1970 ca         1 ZGB      -0.219000
     10 C7           4.2750    -0.0020     0.0020 ca         1 ZGB      -0.101000
     11 C8           3.5810    -0.0010     1.1970 ca         1 ZGB      -0.083300
     12 C9           4.3330    -0.0000     2.5030 c3         1 ZGB      -0.025100
     13 C10          4.5860    -1.4420     2.9470 c3         1 ZGB      -0.178400
     14 C11          5.3380    -1.4410     4.2530 c          1 ZGB       0.889600
     15 H1          -0.3610     0.0900     1.0170 hc         1 ZGB       0.035367
     16 H1A         -0.3610     0.8360    -0.5860 hc         1 ZGB       0.035367
     17 H1B         -0.3610    -0.9260    -0.4310 hc         1 ZGB       0.035367
     18 H3           1.6560     0.0010     2.1340 ha         1 ZGB       0.139000
     19 H5           2.9310    -0.9020    -3.5940 h1         1 ZGB       0.033033
     20 H5A          1.6450    -0.0260    -4.4360 h1         1 ZGB       0.033033
     21 H5B          2.9270     0.8670    -3.6050 h1         1 ZGB       0.033033
     22 H6           4.1330    -0.0080    -2.1340 ha         1 ZGB       0.120000
     23 H7           5.3590    -0.0020     0.0050 ha         1 ZGB       0.134000
     24 H9           3.7470     0.5120     3.2570 hc         1 ZGB       0.054700
     25 H9A          5.2800     0.5100     2.3750 hc         1 ZGB       0.054700
     26 H10          3.6390    -1.9510     3.0760 hc         1 ZGB       0.032200
     27 H10A         5.1720    -1.9540     2.1930 hc         1 ZGB       0.032200
@<TRIPOS>BOND
     1     3     1 1
     2     1    15 1
     3     1    16 1
     4     1    17 1
     5     7     2 1
     6     2     8 1
     7     5     3 ar
     8     3     7 ar
     9     4    14 1
    10    11     5 ar
    11     5    18 1
    12     6    14 1
    13     9     7 ar
    14     8    19 1
    15     8    20 1
    16     8    21 1
    17    10     9 ar
    18     9    22 1
    19    11    10 ar
    20    10    23 1
    21    12    11 1
    22    13    12 1
    23    12    24 1
    24    12    25 1
    25    14    13 1
    26    13    26 1
    27    13    27 1
@<TRIPOS>SUBSTRUCTURE
     1 ZGB         1 TEMP              0 ****  ****    0 ROOT
