@<TRIPOS>MOLECULE
ZGB
   27    27     1     0     0
SMALL
bcc


@<TRIPOS>ATOM
      1 C1         -0.0520    0.1390   -0.1670 c3        1 ZGB     -0.032800
      2 O1          1.5380    0.0910   -2.4060 os        1 ZGB     -0.338900
      3 C2          1.4200    0.0520   -0.0460 ca        1 ZGB     -0.106300
      4 O2          6.4510   -0.3390    4.2330 o         1 ZGB     -0.849300
      5 C3          2.0440   -0.0010    1.2020 ca        1 ZGB     -0.114000
      6 O3          5.7050   -2.3070    4.9820 o         1 ZGB     -0.849300
      7 C4          2.2280    0.0230   -1.2010 ca        1 ZGB      0.086100
      8 C5          2.3260   -0.0540   -3.5770 c3        1 ZGB      0.119700
      9 C6          3.6200   -0.0580   -1.1010 ca        1 ZGB     -0.198000
     10 C7          4.2140   -0.1100    0.1580 ca        1 ZGB     -0.105000
     11 C8          3.4360   -0.0810    1.3210 ca        1 ZGB     -0.063300
     12 C9          4.0890   -0.1270    2.6580 c3        1 ZGB     -0.037100
     13 C10         4.7410   -1.4610    2.9500 c3        1 ZGB     -0.192400
     14 C11         5.7020   -1.3560    4.1490 c         1 ZGB      0.907600
     15 H1         -0.3400    1.1050   -0.6510 hc        1 ZGB      0.036033
     16 H1A        -0.5460    0.0760    0.8330 hc        1 ZGB      0.036033
     17 H1B        -0.4340   -0.6930   -0.8110 hc        1 ZGB      0.036033
     18 H3          1.4250    0.0170    2.1130 ha        1 ZGB      0.132000
     19 H5          1.5760   -0.0310   -4.4070 h1        1 ZGB      0.034033
     20 H5A         2.8760   -1.0260   -3.5720 h1        1 ZGB      0.034033
     21 H5B         3.0450    0.7960   -3.6780 h1        1 ZGB      0.034033
     22 H6          4.2510   -0.0810   -1.9990 ha        1 ZGB      0.122000
     23 H7          5.3100   -0.1770    0.2470 ha        1 ZGB      0.145000
     24 H9          4.8860    0.6680    2.7140 hc        1 ZGB      0.058700
     25 H9A         3.3390    0.1010    3.4610 hc        1 ZGB      0.058700
     26 H10         5.3380   -1.7980    2.0650 hc        1 ZGB      0.024200
     27 H10A        3.9660   -2.2380    3.1600 hc        1 ZGB      0.024200
@<TRIPOS>BOND
     1    1    3 1   
     2    1   15 1   
     3    1   16 1   
     4    1   17 1   
     5    2    7 1   
     6    2    8 1   
     7    3    5 ar  
     8    3    7 ar  
     9    4   14 1   
    10    5   11 ar  
    11    5   18 1   
    12    6   14 1   
    13    7    9 ar  
    14    8   19 1   
    15    8   20 1   
    16    8   21 1   
    17    9   10 ar  
    18    9   22 1   
    19   10   11 ar  
    20   10   23 1   
    21   11   12 1   
    22   12   13 1   
    23   12   24 1   
    24   12   25 1   
    25   13   14 1   
    26   13   26 1   
    27   13   27 1   
@<TRIPOS>SUBSTRUCTURE
     1 ZGB         1 TEMP              0 ****  ****    0 ROOT
