@<TRIPOS>MOLECULE
molecule
   24    24     1     0     0
SMALL
bcc


@<TRIPOS>ATOM
      1 C1           0.0000     0.0000     0.0000 c3         1 ZGC       0.133700
      2 O1           1.4290     0.0000     0.0000 os         1 ZGC      -0.341900
      3 C2           2.0470     0.0000     1.2110 ca         1 ZGC       0.106100
      4 O2           5.2190    -2.6040     7.4080 o          1 ZGC      -0.854800
      5 C3           1.2920    -0.0050     2.3750 ca         1 ZGC      -0.191500
      6 O3           5.1790    -0.3950     7.3530 o          1 ZGC      -0.854800
      7 C4           1.9210    -0.0050     3.6050 ca         1 ZGC      -0.098000
      8 C5           3.4310    -0.0000     1.2840 ca         1 ZGC      -0.191500
      9 C6           4.0570     0.0000     2.5170 ca         1 ZGC      -0.098000
     10 C7           3.3020    -0.0000     3.6760 ca         1 ZGC      -0.086300
     11 C8           3.9880     0.0010     5.0180 c3         1 ZGC      -0.025100
     12 C9           4.2250    -1.4420     5.4700 c3         1 ZGC      -0.177400
     13 C10          4.9090    -1.4420     6.8120 c          1 ZGC       0.889600
     14 H1          -0.3610    -0.8860     0.5080 h1         1 ZGC       0.032700
     15 H1A         -0.3610     0.8830     0.5130 h1         1 ZGC       0.032700
     16 H1B         -0.3610     0.0030    -1.0210 h1         1 ZGC       0.032700
     17 H3           0.2100    -0.0090     2.3200 ha         1 ZGC       0.124000
     18 H4           1.3330    -0.0080     4.5140 ha         1 ZGC       0.136000
     19 H5           4.0220     0.0000     0.3760 ha         1 ZGC       0.124000
     20 H6           5.1380     0.0020     2.5750 ha         1 ZGC       0.136000
     21 H8           3.3620     0.5070     5.7430 hc         1 ZGC       0.054200
     22 H8A          4.9370     0.5150     4.9390 hc         1 ZGC       0.054200
     23 H9           3.2760    -1.9570     5.5480 hc         1 ZGC       0.031700
     24 H9A          4.8520    -1.9490     4.7450 hc         1 ZGC       0.031700
@<TRIPOS>BOND
     1     2     1 1
     2     1    14 1
     3     1    15 1
     4     1    16 1
     5     3     2 1
     6     5     3 ar
     7     3     8 ar
     8     4    13 1
     9     7     5 ar
    10     5    17 1
    11     6    13 1
    12     7    10 ar
    13     7    18 1
    14     9     8 ar
    15     8    19 1
    16    10     9 ar
    17     9    20 1
    18    11    10 1
    19    12    11 1
    20    11    21 1
    21    11    22 1
    22    13    12 1
    23    12    23 1
    24    12    24 1
@<TRIPOS>SUBSTRUCTURE
     1 ZGC         1 TEMP              0 ****  ****    0 ROOT
