@<TRIPOS>MOLECULE
ZGC
   24    24     1     0     0
SMALL
bcc


@<TRIPOS>ATOM
      1 C1         -0.0600    0.0130    0.0200 c3        1 ZGC      0.119700
      2 O1          1.3510    0.1600   -0.0030 os        1 ZGC     -0.340900
      3 C2          1.9860    0.0760    1.2300 ca        1 ZGC      0.086100
      4 O2          5.3680   -2.3290    7.4370 o         1 ZGC     -0.849300
      5 C3          1.3210   -0.0450    2.4550 ca        1 ZGC     -0.179500
      6 O3          4.3000   -0.3860    7.7020 o         1 ZGC     -0.849300
      7 C4          2.0680   -0.1090    3.6300 ca        1 ZGC     -0.108500
      8 C5          3.3880    0.1310    1.1790 ca        1 ZGC     -0.179500
      9 C6          4.1130    0.0650    2.3640 ca        1 ZGC     -0.108500
     10 C7          3.4670   -0.0550    3.6020 ca        1 ZGC     -0.066300
     11 C8          4.2430   -0.1140    4.8700 c3        1 ZGC     -0.037100
     12 C9          4.1620   -1.4640    5.5470 c3        1 ZGC     -0.192400
     13 C10         4.6520   -1.3810    7.0050 c         1 ZGC      0.907600
     14 H1         -0.3500    0.0620   -1.0600 h1        1 ZGC      0.034033
     15 H1A        -0.3520   -0.9720    0.4590 h1        1 ZGC      0.034033
     16 H1B        -0.5360    0.8470    0.5910 h1        1 ZGC      0.034033
     17 H3          0.2260   -0.0900    2.5050 ha        1 ZGC      0.127000
     18 H4          1.5570   -0.2090    4.6010 ha        1 ZGC      0.138000
     19 H5          3.8920    0.2240    0.2080 ha        1 ZGC      0.127000
     20 H6          5.2130    0.1040    2.3290 ha        1 ZGC      0.138000
     21 H8          5.3190    0.1370    4.6740 hc        1 ZGC      0.058700
     22 H8A         3.8480    0.6590    5.5890 hc        1 ZGC      0.058700
     23 H9          3.1010   -1.8220    5.5650 hc        1 ZGC      0.024200
     24 H9A         4.7710   -2.2190    4.9920 hc        1 ZGC      0.024200
@<TRIPOS>BOND
     1    1    2 1   
     2    1   14 1   
     3    1   15 1   
     4    1   16 1   
     5    2    3 1   
     6    3    5 ar  
     7    3    8 ar  
     8    4   13 1   
     9    5    7 ar  
    10    5   17 1   
    11    6   13 1   
    12    7   10 ar  
    13    7   18 1   
    14    8    9 ar  
    15    8   19 1   
    16    9   10 ar  
    17    9   20 1   
    18   10   11 1   
    19   11   12 1   
    20   11   21 1   
    21   11   22 1   
    22   12   13 1   
    23   12   23 1   
    24   12   24 1   
@<TRIPOS>SUBSTRUCTURE
     1 ZGC         1 TEMP              0 ****  ****    0 ROOT
