@<TRIPOS>MOLECULE
molecule
   43    43     1     0     0
SMALL
bcc


@<TRIPOS>ATOM
      1 O10          0.0000     0.0000     0.0000 o          1 ZGE      -0.605100
      2 C10          1.2130     0.0000     0.0000 c          1 ZGE       0.656100
      3 C11          1.9670     0.0000     1.3060 c3         1 ZGE      -0.170100
      4 N5           1.8870    -0.0080    -1.1670 ns         1 ZGE      -0.594900
      5 C5           1.1540    -0.0150    -2.4350 c3         1 ZGE       0.078700
      6 C4           0.7980    -1.4550    -2.8190 c3         1 ZGE       0.247700
      7 N4          -0.2750    -1.9400    -1.9480 nu         1 ZGE      -0.819200
      8 C12         -0.4230    -3.2890    -1.7270 c2         1 ZGE       0.714100
      9 N7           0.4370    -4.1820    -2.3220 nz         1 ZGE      -0.810600
     10 N6          -1.3780    -3.7220    -0.9510 n2         1 ZGE      -0.818100
     11 C3           0.3380    -1.4930    -4.2510 c2         1 ZGE      -0.174700
     12 F1          -0.3560    -2.5680    -4.6850 f          1 ZGE      -0.161500
     13 C6           2.0350     0.5760    -3.5450 c3         1 ZGE       0.136100
     14 O6           1.2700     0.6180    -4.7530 os         1 ZGE      -0.242900
     15 C2           0.5890    -0.5030    -5.1030 ce         1 ZGE       0.141900
     16 C1           0.1100    -0.6280    -6.4850 c          1 ZGE       0.869800
     17 O1B          0.3480     0.3580    -7.3740 o          1 ZGE      -0.769800
     18 O1A         -0.5030    -1.6210    -6.8280 o          1 ZGE      -0.769800
     19 C7           2.4690     1.9910    -3.1600 c3         1 ZGE       0.168100
     20 O7           1.3140     2.7820    -2.8720 oh         1 ZGE      -0.578800
     21 C8           3.2420     2.6210    -4.3200 c3         1 ZGE       0.129100
     22 O8           4.3970     1.8310    -4.6090 oh         1 ZGE      -0.624800
     23 C9           3.6750     4.0370    -3.9360 c3         1 ZGE       0.104400
     24 O9           4.2950     4.6670    -5.0590 oh         1 ZGE      -0.605800
     25 H1           1.2800    -0.2020     2.1190 hc         1 ZGE       0.064367
     26 H2           2.7320    -0.7660     1.2800 hc         1 ZGE       0.064367
     27 H3           2.4290     0.9680     1.4560 hc         1 ZGE       0.064367
     28 H4           2.8860    -0.0700    -1.1660 hn         1 ZGE       0.317500
     29 H5           0.2480     0.5700    -2.3410 h1         1 ZGE       0.130700
     30 H6           1.6730    -2.0830    -2.7070 h1         1 ZGE       0.016700
     31 H7          -0.9570    -1.3000    -1.5920 hn         1 ZGE       0.525800
     32 H8           1.3810    -3.9250    -2.1130 hn         1 ZGE       0.465800
     33 H9           0.2570    -5.1020    -1.9730 hn         1 ZGE       0.465800
     34 H10         -1.4860    -4.7040    -0.7890 hn         1 ZGE       0.419400
     35 H11          2.9060    -0.0510    -3.6890 h1         1 ZGE       0.067700
     36 H13          3.1050     1.9480    -2.2840 h1         1 ZGE       0.036700
     37 H14          1.5010     3.3610    -2.1510 ho         1 ZGE       0.402000
     38 H15          2.6060     2.6640    -5.1960 h1         1 ZGE       0.105700
     39 H16          4.8020     2.1430    -5.4010 ho         1 ZGE       0.433000
     40 H17          4.3800     3.9890    -3.1140 h1         1 ZGE       0.025200
     41 H18          2.8080     4.6110    -3.6330 h1         1 ZGE       0.025200
     42 H19          4.5620     5.5400    -4.8220 ho         1 ZGE       0.407000
     43 H73          0.3000    -4.1660    -3.3130 hn         1 ZGE       0.465800
@<TRIPOS>BOND
     1    10     8 2
     2     3     2 1
     3    22    21 1
     4     4     2 1
     5     4     5 1
     6    24    23 1
     7     8     9 1
     8     8     7 1
     9     2     1 2
    10    21    23 1
    11    21    19 1
    12     6     5 1
    13     6     7 1
    14     6    11 1
    15    13    19 1
    16    13     5 1
    17    13    14 1
    18    19    20 1
    19    11    12 1
    20    11    15 2
    21    14    15 1
    22    15    16 1
    23    16    17 1
    24    16    18 1
    25     3    25 1
    26     3    26 1
    27     3    27 1
    28     4    28 1
    29     5    29 1
    30     6    30 1
    31     7    31 1
    32     9    32 1
    33     9    33 1
    34    10    34 1
    35    13    35 1
    36    19    36 1
    37    20    37 1
    38    21    38 1
    39    22    39 1
    40    23    40 1
    41    23    41 1
    42    24    42 1
    43    43     9 1
@<TRIPOS>SUBSTRUCTURE
     1 ZGE         1 TEMP              0 ****  ****    0 ROOT
