@<TRIPOS>MOLECULE
ZGE
   43    43     1     0     0
SMALL
bcc


@<TRIPOS>ATOM
      1 O10          0.0000     0.0000     0.0000 o          1 ZGE      -0.660100
      2 C10          1.2130     0.0000     0.0000 c          1 ZGE       0.575100
      3 C11          1.9670     0.0000     1.3060 c3         1 ZGE      -0.065100
      4 N5           1.8870    -0.0080    -1.1670 ns         1 ZGE      -0.202900
      5 C5           1.1540    -0.0150    -2.4350 c3         1 ZGE      -0.025300
      6 C4           0.7980    -1.4550    -2.8190 c3         1 ZGE       0.187700
      7 N4          -0.2750    -1.9400    -1.9480 nu         1 ZGE      -0.465200
      8 C12         -0.4230    -3.2890    -1.7270 c2         1 ZGE       0.284100
      9 N7           0.4370    -4.1820    -2.3220 nz         1 ZGE       0.159400
     10 N6          -1.3780    -3.7220    -0.9510 n2         1 ZGE      -0.682100
     11 C3           0.3380    -1.4930    -4.2510 c2         1 ZGE      -0.234700
     12 F1          -0.3560    -2.5680    -4.6850 f          1 ZGE      -0.142500
     13 C6           2.0350     0.5760    -3.5450 c3         1 ZGE       0.154100
     14 O6           1.2700     0.6180    -4.7530 os         1 ZGE      -0.214900
     15 C2           0.5890    -0.5030    -5.1030 ce         1 ZGE       0.167900
     16 C1           0.1100    -0.6280    -6.4850 c          1 ZGE       0.947800
     17 O1B          0.3480     0.3580    -7.3740 o          1 ZGE      -0.824800
     18 O1A         -0.5030    -1.6210    -6.8280 o          1 ZGE      -0.824800
     19 C7           2.4690     1.9910    -3.1600 c3         1 ZGE       0.189100
     20 O7           1.3140     2.7820    -2.8720 oh         1 ZGE      -0.561800
     21 C8           3.2420     2.6210    -4.3200 c3         1 ZGE       0.153100
     22 O8           4.3970     1.8310    -4.6090 oh         1 ZGE      -0.605800
     23 C9           3.6750     4.0370    -3.9360 c3         1 ZGE       0.188400
     24 O9           4.2950     4.6670    -5.0590 oh         1 ZGE      -0.585800
     25 H1           2.4420     0.9630     1.4480 hc         1 ZGE       0.026700
     26 H2           1.2780    -0.1870     2.1200 hc         1 ZGE       0.026700
     27 H3           2.7220    -0.7760     1.2860 hc         1 ZGE       0.026700
     28 H4           2.8870    -0.0340    -1.1660 hn         1 ZGE       0.184500
     29 H5           0.2480     0.5700    -2.3410 h1         1 ZGE       0.102700
     30 H6           1.6730    -2.0830    -2.7070 h1         1 ZGE      -0.002300
     31 H7          -0.9580    -1.3010    -1.5930 hn         1 ZGE       0.364800
     32 H8           0.2260    -5.1080    -2.0080 hn         1 ZGE       0.230800
     33 H9           0.3310    -4.1340    -3.3160 hn         1 ZGE       0.230800
     34 H10         -2.0030    -3.0720    -0.5180 hn         1 ZGE       0.377400
     35 H11          2.9060    -0.0510    -3.6890 h1         1 ZGE       0.036700
     36 H13          3.1050     1.9480    -2.2840 h1         1 ZGE      -0.001300
     37 H14          1.5010     3.3610    -2.1510 ho         1 ZGE       0.388000
     38 H15          2.6060     2.6640    -5.1960 h1         1 ZGE       0.068700
     39 H16          4.7230     2.0520    -5.4660 ho         1 ZGE       0.421000
     40 H17          4.3800     3.9890    -3.1140 h1         1 ZGE      -0.009800
     41 H18          2.8080     4.6110    -3.6330 h1         1 ZGE      -0.009800
     42 H19          4.5340     5.5510    -4.8320 ho         1 ZGE       0.393000
     43 H73          1.3790    -3.9530    -2.0730 hn         1 ZGE       0.230800
@<TRIPOS>BOND
     1     1     2 2   
     2     2     3 1   
     3     2     4 1   
     4     3    25 1   
     5     3    26 1   
     6     3    27 1   
     7     4     5 1   
     8     4    28 1   
     9     5     6 1   
    10     5    13 1   
    11     5    29 1   
    12     6     7 1   
    13     6    11 1   
    14     6    30 1   
    15     7     8 1   
    16     7    31 1   
    17     8     9 1   
    18     8    10 2   
    19     9    32 1   
    20     9    33 1   
    21     9    43 1   
    22    10    34 1   
    23    11    12 1   
    24    11    15 2   
    25    13    14 1   
    26    13    19 1   
    27    13    35 1   
    28    14    15 1   
    29    15    16 1   
    30    16    17 1   
    31    16    18 1   
    32    19    20 1   
    33    19    21 1   
    34    19    36 1   
    35    20    37 1   
    36    21    22 1   
    37    21    23 1   
    38    21    38 1   
    39    22    39 1   
    40    23    24 1   
    41    23    40 1   
    42    23    41 1   
    43    24    42 1   
@<TRIPOS>SUBSTRUCTURE
     1 ZGE         1 TEMP              0 ****  ****    0 ROOT
