@<TRIPOS>MOLECULE
molecule
   60    63     1     0     0
SMALL
bcc


@<TRIPOS>ATOM
      1 O6           0.0000     0.0000     0.0000 o          1 ZGP      -0.542500
      2 C6           1.2200     0.0000     0.0000 c          1 ZGP       0.625000
      3 N1           1.9120     0.0000     1.1610 ns         1 ZGP      -0.472400
      4 C2           3.2750     0.0010     1.1490 cc         1 ZGP       0.413800
      5 N2           3.9510     0.0000     2.3440 nz         1 ZGP      -0.718600
      6 N3           3.9600    -0.0000     0.0280 nd         1 ZGP      -0.516100
      7 C4           3.3430    -0.0010    -1.1590 cd         1 ZGP       0.013800
      8 C5           1.9440    -0.0070    -1.2140 cc         1 ZGP       0.309800
      9 N7           1.5930    -0.0140    -2.5230 nc         1 ZGP      -0.626000
     10 C8           2.6670    -0.0180    -3.2580 cd         1 ZGP       0.530400
     11 N9           3.7740    -0.0010    -2.4580 na         1 ZGP      -0.148900
     12 C1'          5.1680    -0.0010    -2.9090 c3         1 ZGP       0.238800
     13 O4'          5.2590     0.4400    -4.2810 os         1 ZGP      -0.379600
     14 C2'          5.7260    -1.4470    -2.9560 c3         1 ZGP       0.085100
     15 O2'          6.2420    -1.8360    -1.6820 oh         1 ZGP      -0.591800
     16 C3'          6.8650    -1.3200    -3.9980 c3         1 ZGP       0.088100
     17 O3'          8.1250    -1.1610    -3.3430 oh         1 ZGP      -0.583800
     18 C4'          6.5050    -0.0540    -4.7980 c3         1 ZGP       0.116100
     19 C5'          6.3520    -0.4020    -6.2810 c3         1 ZGP       0.233400
     20 O5'          6.1180     0.7930    -7.0290 os         1 ZGP      -0.590200
     21 PBK          5.9080     0.8010    -8.6250 p5         1 ZGP       1.312800
     22 OAJ          4.5540     0.0100    -8.9930 o          1 ZGP      -0.791000
     23 OAG          7.0590     0.1360    -9.2770 o          1 ZGP      -0.791000
     24 OAT          5.8010     2.3200    -9.1440 os         1 ZGP      -0.460500
     25 CBA          5.7450     2.4390   -10.4950 ca         1 ZGP       0.230100
     26 CAX          4.5190     2.5340   -11.1540 ca         1 ZGP      -0.207600
     27 CAA          3.2310     2.5060   -10.3730 c3         1 ZGP      -0.033800
     28 CAY          6.9070     2.4760   -11.2560 ca         1 ZGP      -0.205600
     29 CAB          8.2570     2.3840   -10.5940 c3         1 ZGP      -0.025800
     30 CBB          6.8070     2.5990   -12.6340 ca         1 ZGP       0.639600
     31 OAE          7.9340     2.6340   -13.3880 oh         1 ZGP      -0.614300
     32 NAR          5.6230     2.6800   -13.2210 nb         1 ZGP      -0.777000
     33 CAZ          4.5000     2.6540   -12.5270 ca         1 ZGP       0.443600
     34 CAM          3.1800     2.7500   -13.2470 c3         1 ZGP      -0.197700
     35 CAV          2.7000     1.3660   -13.6030 c          1 ZGP       0.605700
     36 OAD          3.3650     0.3980   -13.3030 o          1 ZGP      -0.437100
     37 SAK          1.2160     1.1620   -14.4320 sh         1 ZGP      -0.437400
     38 H1           1.4210    -0.0000     2.0330 hn         1 ZGP       0.340500
     39 H2           3.4970     0.6220     2.9840 hn         1 ZGP       0.471800
     40 H3           3.9560    -0.9250     2.7240 hn         1 ZGP       0.471800
     41 H4           2.6810    -0.0320    -4.3410 h5         1 ZGP       0.131100
     42 H5           5.7820     0.6210    -2.2690 h2         1 ZGP       0.105700
     43 H6           4.9670    -2.1390    -3.3000 h1         1 ZGP       0.064700
     44 H7           6.2720    -2.7770    -1.6280 ho         1 ZGP       0.410000
     45 H8           6.8770    -2.1860    -4.6490 h1         1 ZGP       0.068700
     46 H9           8.7140    -1.8420    -3.6230 ho         1 ZGP       0.414000
     47 H10          7.2780     0.6930    -4.6680 h1         1 ZGP       0.093700
     48 H11          7.2580    -0.8790    -6.6360 h1         1 ZGP       0.048200
     49 H12          5.5150    -1.0780    -6.4090 h1         1 ZGP       0.048200
     50 H15          2.7330     1.5570   -10.5320 hc         1 ZGP       0.047033
     51 H16          3.4450     2.6280    -9.3180 hc         1 ZGP       0.047033
     52 H17          2.5880     3.3110   -10.7070 hc         1 ZGP       0.047033
     53 H18          8.9390     3.0830   -11.0630 hc         1 ZGP       0.049033
     54 H19          8.6430     1.3770   -10.7000 hc         1 ZGP       0.049033
     55 H20          8.1610     2.6250    -9.5420 hc         1 ZGP       0.049033
     56 H21          3.3040     3.3340   -14.1510 hc         1 ZGP       0.083200
     57 H22          2.4520     3.2310   -12.6040 hc         1 ZGP       0.083200
     58 H23          1.4310     0.5190   -15.5730 hs         1 ZGP       0.245800
     59 H14          7.8110     3.2300   -14.1090 ho         1 ZGP       0.420000
     60 H231         4.8910     0.3080     2.1940 hn         1 ZGP       0.471800
@<TRIPOS>BOND
     1     5     4 1
     2     4     3 1
     3     4     6 2
     4     3     2 1
     5     6     7 1
     6    15    14 1
     7     2     1 2
     8     2     8 1
     9     7     8 2
    10     7    11 1
    11    12    14 1
    12    12    11 1
    13    12    13 1
    14    14    16 1
    15     8     9 1
    16    11    10 1
    17    13    18 1
    18    17    16 1
    19    18    16 1
    20    18    19 1
    21     9    10 2
    22    19    20 1
    23    20    21 1
    24    23    21 1
    25    21    22 1
    26    21    24 1
    27    31    30 1
    28    29    28 1
    29    30    28 ar
    30    30    32 ar
    31    28    25 ar
    32    32    33 ar
    33    25    24 1
    34    25    26 ar
    35    33    26 ar
    36    33    34 1
    37    26    27 1
    38    34    35 1
    39    35    36 2
    40    35    37 1
    41     3    38 1
    42     5    39 1
    43     5    40 1
    44    10    41 1
    45    12    42 1
    46    14    43 1
    47    15    44 1
    48    16    45 1
    49    17    46 1
    50    18    47 1
    51    19    48 1
    52    19    49 1
    53    27    50 1
    54    27    51 1
    55    27    52 1
    56    29    53 1
    57    29    54 1
    58    29    55 1
    59    34    56 1
    60    34    57 1
    61    37    58 1
    62    31    59 1
    63    60     5 1
@<TRIPOS>SUBSTRUCTURE
     1 ZGP         1 TEMP              0 ****  ****    0 ROOT
