@<TRIPOS>MOLECULE
ZGP
   60    63     1     0     0
SMALL
bcc


@<TRIPOS>ATOM
      1 O6           0.0000     0.0000     0.0000 o          1 ZGP      -0.585500
      2 C6           1.2200     0.0000     0.0000 c          1 ZGP       0.526000
      3 N1           1.9120     0.0000     1.1610 ns         1 ZGP      -0.012400
      4 C2           3.2750     0.0010     1.1490 cc         1 ZGP      -0.068200
      5 N2           3.9510     0.0000     2.3440 nz         1 ZGP       0.236400
      6 N3           3.9600    -0.0000     0.0280 nd         1 ZGP      -0.297100
      7 C4           3.3430    -0.0010    -1.1590 cd         1 ZGP      -0.248200
      8 C5           1.9440    -0.0070    -1.2140 cc         1 ZGP       0.277800
      9 N7           1.5930    -0.0140    -2.5230 nc         1 ZGP      -0.517000
     10 C8           2.6670    -0.0180    -3.2580 cd         1 ZGP       0.345400
     11 N9           3.7740    -0.0010    -2.4580 na         1 ZGP       0.352100
     12 C1'          5.1680    -0.0010    -2.9090 c3         1 ZGP       0.115800
     13 O4'          5.2590     0.4400    -4.2810 os         1 ZGP      -0.363600
     14 C2'          5.7260    -1.4470    -2.9560 c3         1 ZGP       0.126100
     15 O2'          6.2420    -1.8360    -1.6820 oh         1 ZGP      -0.575800
     16 C3'          6.8650    -1.3200    -3.9980 c3         1 ZGP       0.130100
     17 O3'          8.1250    -1.1610    -3.3430 oh         1 ZGP      -0.565800
     18 C4'          6.5050    -0.0540    -4.7980 c3         1 ZGP       0.140100
     19 C5'          6.3520    -0.4020    -6.2810 c3         1 ZGP       0.313400
     20 O5'          6.1180     0.7930    -7.0290 os         1 ZGP      -0.501200
     21 PBK          5.9080     0.8010    -8.6250 p5         1 ZGP       0.913800
     22 OAJ          4.5540     0.0100    -8.9930 o          1 ZGP      -0.639000
     23 OAG          7.0590     0.1360    -9.2770 o          1 ZGP      -0.639000
     24 OAT          5.8010     2.3200    -9.1440 os         1 ZGP      -0.372500
     25 CBA          5.7450     2.4390   -10.4950 ca         1 ZGP       0.302100
     26 CAX          4.5190     2.5340   -11.1540 ca         1 ZGP      -0.246600
     27 CAA          3.2310     2.5060   -10.3730 c3         1 ZGP       0.070200
     28 CAY          6.9070     2.4760   -11.2560 ca         1 ZGP      -0.252600
     29 CAB          8.2570     2.3840   -10.5940 c3         1 ZGP       0.080200
     30 CBB          6.8070     2.5990   -12.6340 ca         1 ZGP       0.609600
     31 OAE          7.9340     2.6340   -13.3880 oh         1 ZGP      -0.605300
     32 NAR          5.6230     2.6800   -13.2210 nb         1 ZGP      -0.685000
     33 CAZ          4.5000     2.6540   -12.5270 ca         1 ZGP       0.394600
     34 CAM          3.1800     2.7500   -13.2470 c3         1 ZGP      -0.136700
     35 CAV          2.7000     1.3660   -13.6030 c          1 ZGP       0.641700
     36 OAD          3.3650     0.3980   -13.3030 o          1 ZGP      -0.467100
     37 SAK          1.2160     1.1620   -14.4320 sh         1 ZGP      -0.409400
     38 H1           1.4210    -0.0000     2.0330 hn         1 ZGP       0.181500
     39 H2           3.4970     0.6220     2.9840 hn         1 ZGP       0.208800
     40 H3           3.9560    -0.9250     2.7240 hn         1 ZGP       0.208800
     41 H4           2.6810    -0.0320    -4.3410 h5         1 ZGP       0.075100
     42 H5           5.7820     0.6210    -2.2690 h2         1 ZGP       0.063700
     43 H6           4.9670    -2.1390    -3.3000 h1         1 ZGP       0.026700
     44 H7           6.2720    -2.7770    -1.6280 ho         1 ZGP       0.397000
     45 H8           6.8770    -2.1860    -4.6490 h1         1 ZGP       0.031700
     46 H9           8.7140    -1.8420    -3.6230 ho         1 ZGP       0.398000
     47 H10          7.2780     0.6930    -4.6680 h1         1 ZGP       0.051700
     48 H11          7.2580    -0.8790    -6.6360 h1         1 ZGP      -0.003300
     49 H12          5.5150    -1.0780    -6.4090 h1         1 ZGP      -0.003300
     50 H15          2.7330     1.5570   -10.5320 hc         1 ZGP       0.011367
     51 H16          3.4450     2.6280    -9.3180 hc         1 ZGP       0.011367
     52 H17          2.5880     3.3110   -10.7070 hc         1 ZGP       0.011367
     53 H18          8.9390     3.0830   -11.0630 hc         1 ZGP       0.012033
     54 H19          8.6430     1.3770   -10.7000 hc         1 ZGP       0.012033
     55 H20          8.1610     2.6250    -9.5420 hc         1 ZGP       0.012033
     56 H21          3.3040     3.3340   -14.1510 hc         1 ZGP       0.047700
     57 H22          2.4520     3.2310   -12.6040 hc         1 ZGP       0.047700
     58 H23          1.4310     0.5190   -15.5730 hs         1 ZGP       0.202800
     59 H14          7.8110     3.2300   -14.1090 ho         1 ZGP       0.395000
     60 H231         4.8910     0.3080     2.1940 hn         1 ZGP       0.208800
@<TRIPOS>BOND
     1     1     2 2   
     2     2     3 1   
     3     2     8 1   
     4     3     4 1   
     5     3    38 1   
     6     4     5 1   
     7     4     6 2   
     8     5    39 1   
     9     5    40 1   
    10     5    60 1   
    11     6     7 1   
    12     7     8 2   
    13     7    11 1   
    14     8     9 1   
    15     9    10 2   
    16    10    11 1   
    17    10    41 1   
    18    11    12 1   
    19    12    13 1   
    20    12    14 1   
    21    12    42 1   
    22    13    18 1   
    23    14    15 1   
    24    14    16 1   
    25    14    43 1   
    26    15    44 1   
    27    16    17 1   
    28    16    18 1   
    29    16    45 1   
    30    17    46 1   
    31    18    19 1   
    32    18    47 1   
    33    19    20 1   
    34    19    48 1   
    35    19    49 1   
    36    20    21 1   
    37    21    22 1   
    38    21    23 1   
    39    21    24 1   
    40    24    25 1   
    41    25    26 ar  
    42    25    28 ar  
    43    26    27 1   
    44    26    33 ar  
    45    27    50 1   
    46    27    51 1   
    47    27    52 1   
    48    28    29 1   
    49    28    30 ar  
    50    29    53 1   
    51    29    54 1   
    52    29    55 1   
    53    30    31 1   
    54    30    32 ar  
    55    31    59 1   
    56    32    33 ar  
    57    33    34 1   
    58    34    35 1   
    59    34    56 1   
    60    34    57 1   
    61    35    36 2   
    62    35    37 1   
    63    37    58 1   
@<TRIPOS>SUBSTRUCTURE
     1 ZGP         1 TEMP              0 ****  ****    0 ROOT
