@<TRIPOS>MOLECULE
molecule
   47    47     1     0     0
SMALL
bcc


@<TRIPOS>ATOM
      1 C1           0.0000     0.0000     0.0000 ca         1 ZGR      -0.064600
      2 C2           1.4030     0.0000     0.0000 ca         1 ZGR       0.126100
      3 C3           2.0930     0.0000     1.2000 ca         1 ZGR      -0.216000
      4 O2           2.0820    -0.0010    -1.1740 oh         1 ZGR      -0.494100
      5 C4           1.4030    -0.0020     2.4050 ca         1 ZGR       0.074100
      6 O4           2.0920    -0.0070     3.5760 oh         1 ZGR      -0.533100
      7 C5           0.0150    -0.0010     2.4220 ca         1 ZGR      -0.162000
      8 C6          -0.6960     0.0050     1.2280 ca         1 ZGR      -0.037800
      9 O6P         -6.0640    -3.1100     4.5880 o          1 ZGR      -0.524100
     10 C6P         -6.8550    -2.3550     4.0740 c          1 ZGR       0.560100
     11 C7P         -8.3340    -2.5830     4.2460 c3         1 ZGR      -0.186400
     12 C8P         -8.5630    -3.8250     5.1090 c3         1 ZGR      -0.072400
     13 C9P        -10.0650    -4.0550     5.2840 c3         1 ZGR      -0.079400
     14 C10        -10.2930    -5.2980     6.1480 c3         1 ZGR       0.145100
     15 O10         -9.7920    -5.0620     7.4650 oh         1 ZGR      -0.605800
     16 C11        -11.7920    -5.6000     6.2200 c3         1 ZGR      -0.121100
     17 C5P         -6.3610    -1.1880     3.2590 c3         1 ZGR      -0.183400
     18 C4P         -4.8310    -1.1880     3.2430 c3         1 ZGR      -0.069400
     19 C3P         -4.3300    -0.0010     2.4170 c3         1 ZGR      -0.037200
     20 C2P         -2.8240    -0.0010     2.4000 c2         1 ZGR      -0.230200
     21 C1P         -2.1710     0.0040     1.2440 ce         1 ZGR      -0.052200
     22 C12         -0.7390     0.0000    -1.2680 c          1 ZGR       0.887200
     23 O13         -1.0780     1.1690    -1.8510 o          1 ZGR      -0.827800
     24 O12         -1.0450    -1.0520    -1.7950 o          1 ZGR      -0.827800
     25 H1           3.1760    -0.0000     1.1990 ha         1 ZGR       0.122000
     26 H2           2.6150     0.7750    -1.2290 ho         1 ZGR       0.403000
     27 H3           2.3160     0.8770     3.8130 ho         1 ZGR       0.399000
     28 H4          -0.5140     0.0000     3.3680 ha         1 ZGR       0.127000
     29 H5          -8.7930    -2.7290     3.2750 hc         1 ZGR       0.060200
     30 H6          -8.7780    -1.7210     4.7290 hc         1 ZGR       0.060200
     31 H7          -8.1190    -4.6870     4.6260 hc         1 ZGR       0.060200
     32 H8          -8.1040    -3.6790     6.0800 hc         1 ZGR       0.060200
     33 H9         -10.5090    -3.1930     5.7680 hc         1 ZGR       0.048200
     34 H10        -10.5240    -4.2000     4.3140 hc         1 ZGR       0.048200
     35 H11         -9.7750    -6.1420     5.7100 h1         1 ZGR       0.031700
     36 H12         -9.5500    -5.8820     7.8610 ho         1 ZGR       0.399000
     37 H13        -12.1710    -5.7870     5.2220 hc         1 ZGR       0.038367
     38 H14        -11.9550    -6.4750     6.8380 hc         1 ZGR       0.038367
     39 H15        -12.3110    -4.7520     6.6500 hc         1 ZGR       0.038367
     40 H16         -6.7180    -0.2640     3.6990 hc         1 ZGR       0.061700
     41 H17         -6.7330    -1.2720     2.2450 hc         1 ZGR       0.061700
     42 H18         -4.4590    -1.1050     4.2570 hc         1 ZGR       0.056200
     43 H19         -4.4750    -2.1110     2.8020 hc         1 ZGR       0.056200
     44 H20         -4.6860     0.9220     2.8580 hc         1 ZGR       0.040700
     45 H21         -4.7020    -0.0840     1.4030 hc         1 ZGR       0.040700
     46 H22         -2.2720    -0.0050     3.3330 ha         1 ZGR       0.118000
     47 H23         -2.7220     0.0080     0.3110 ha         1 ZGR       0.164000
@<TRIPOS>BOND
     1     6     5 1
     2     5     7 ar
     3     5     3 ar
     4     7     8 ar
     5     3     2 ar
     6    20    19 1
     7    20    21 2
     8    19    18 1
     9     8    21 1
    10     8     1 ar
    11     2     1 ar
    12     2     4 1
    13     1    22 1
    14    18    17 1
    15    22    24 1
    16    22    23 1
    17    17    10 1
    18    10     9 2
    19    10    11 1
    20    11    12 1
    21    15    14 1
    22    14    13 1
    23    14    16 1
    24    13    12 1
    25     3    25 1
    26     4    26 1
    27     6    27 1
    28     7    28 1
    29    11    29 1
    30    11    30 1
    31    12    31 1
    32    12    32 1
    33    13    33 1
    34    13    34 1
    35    14    35 1
    36    15    36 1
    37    16    37 1
    38    16    38 1
    39    16    39 1
    40    17    40 1
    41    17    41 1
    42    18    42 1
    43    18    43 1
    44    19    44 1
    45    19    45 1
    46    20    46 1
    47    21    47 1
@<TRIPOS>SUBSTRUCTURE
     1 ZGR         1 TEMP              0 ****  ****    0 ROOT
