@<TRIPOS>MOLECULE
ZH1
   50    51     1     0     0
SMALL
bcc


@<TRIPOS>ATOM
      1 C1          0.8790   -1.9660    3.1430 ce        1 ZH1     -0.009700
      2 C2          1.8080   -1.3570    2.3330 cg        1 ZH1     -0.111300
      3 C3          4.4680    0.2100   -0.4000 ca        1 ZH1     -0.106500
      4 C4          5.4110    0.7900   -2.5500 ca        1 ZH1     -0.106500
      5 C5         -0.1530   -1.0380    3.4280 cf        1 ZH1     -0.088000
      6 C6          5.7010   -0.2900    0.0170 ca        1 ZH1     -0.160000
      7 C7          6.6540    0.3050   -2.1520 ca        1 ZH1     -0.160000
      8 C8          0.8780    0.8010    2.0830 cf        1 ZH1      0.071300
      9 C9          4.3220    0.7490   -1.6770 ca        1 ZH1     -0.148000
     10 C10         1.8120   -0.1830    1.8790 ch        1 ZH1     -0.189300
     11 C11        -0.1560    0.2870    2.9220 cf        1 ZH1     -0.151200
     12 C12         6.7870   -0.2360   -0.8640 ca        1 ZH1      0.105100
     13 C13        -1.2540    1.2060    3.2520 c         1 ZH1      0.647300
     14 C14        10.5910   -1.9260    0.3730 c3        1 ZH1      0.074100
     15 C15         9.9630   -3.0790    1.1770 c3        1 ZH1      0.090100
     16 C16         9.9910   -0.5810    0.7990 c3        1 ZH1      0.091100
     17 C17         8.4360   -3.0310    1.0320 c3        1 ZH1      0.100100
     18 C18         8.4500   -0.6400    0.7920 c3        1 ZH1      0.302900
     19 C19        -3.3090    1.5230    4.4080 c3        1 ZH1      0.127700
     20 O21        -1.3950    2.3770    2.8880 o         1 ZH1     -0.538000
     21 O22         7.9460   -1.7620    1.4850 os        1 ZH1     -0.453600
     22 O23        11.9950   -1.9480    0.5280 oh        1 ZH1     -0.593800
     23 O24        10.3980   -4.3350    0.6920 oh        1 ZH1     -0.589800
     24 O25        10.4540   -0.2080    2.0830 oh        1 ZH1     -0.590800
     25 O27         8.0370   -0.7660   -0.5590 os        1 ZH1     -0.356900
     26 O28        -2.2190    0.6660    4.0610 os        1 ZH1     -0.438900
     27 H1          0.8990   -2.9900    3.5220 ha        1 ZH1      0.168000
     28 H2          3.3460    1.1390   -2.0000 ha        1 ZH1      0.135000
     29 H3          3.6050    0.1700    0.2860 ha        1 ZH1      0.140000
     30 H4          5.2910    1.2120   -3.5590 ha        1 ZH1      0.140000
     31 H5         -0.9890   -1.3600    4.0700 ha        1 ZH1      0.171000
     32 H6          5.8200   -0.7350    1.0170 ha        1 ZH1      0.148000
     33 H7          7.5190    0.3270   -2.8290 ha        1 ZH1      0.148000
     34 H8          0.8750    1.8250    1.6940 ha        1 ZH1      0.181000
     35 H14        10.4120   -2.0900   -0.7270 h1        1 ZH1      0.109700
     36 H15        10.2540   -2.9850    2.2620 h1        1 ZH1      0.038700
     37 H16        10.3510    0.2370    0.1150 h1        1 ZH1      0.111700
     38 H17         8.1430   -3.1800   -0.0430 h1        1 ZH1      0.091700
     39 H18         8.0000    0.2510    1.3150 h2        1 ZH1      0.103700
     40 H19        -3.8490    1.8450    3.4860 h1        1 ZH1      0.054033
     41 H19A       -2.9300    2.4150    4.9620 h1        1 ZH1      0.054033
     42 H19B       -3.9520    0.8780    5.0570 h1        1 ZH1      0.054033
     43 HO23       12.2020   -1.5260    1.3750 ho        1 ZH1      0.417000
     44 HO24       11.3440   -4.2480    0.5080 ho        1 ZH1      0.424000
     45 HO25       10.0240   -0.7880    2.7270 ho        1 ZH1      0.412000
     46 HO26        6.0160   -3.2600    1.7820 ho        1 ZH1      0.408000
     47 C20         7.7600   -4.0750    1.9230 c3        1 ZH1      0.140400
     48 O26         6.3740   -4.1510    1.6720 oh        1 ZH1     -0.592800
     49 H20         7.9460   -3.8360    3.0040 h1        1 ZH1      0.062200
     50 H20A        8.1680   -5.0910    1.6710 h1        1 ZH1      0.062200
@<TRIPOS>BOND
     1    1    2 1   
     2    1    5 2   
     3    1   27 1   
     4    2   10 3   
     5    3    6 ar  
     6    3    9 ar  
     7    3   29 1   
     8    4    7 ar  
     9    4    9 ar  
    10    4   30 1   
    11    5   11 1   
    12    5   31 1   
    13    6   12 ar  
    14    6   32 1   
    15    7   12 ar  
    16    7   33 1   
    17    8   10 1   
    18    8   11 2   
    19    8   34 1   
    20    9   28 1   
    21   11   13 1   
    22   12   25 1   
    23   13   20 2   
    24   13   26 1   
    25   14   15 1   
    26   14   16 1   
    27   14   22 1   
    28   14   35 1   
    29   15   17 1   
    30   15   23 1   
    31   15   36 1   
    32   16   18 1   
    33   16   24 1   
    34   16   37 1   
    35   17   21 1   
    36   17   38 1   
    37   17   47 1   
    38   18   21 1   
    39   18   25 1   
    40   18   39 1   
    41   19   26 1   
    42   19   40 1   
    43   19   41 1   
    44   19   42 1   
    45   22   43 1   
    46   23   44 1   
    47   24   45 1   
    48   46   48 1   
    49   47   48 1   
    50   47   49 1   
    51   47   50 1   
@<TRIPOS>SUBSTRUCTURE
     1 ZH1         1 TEMP              0 ****  ****    0 ROOT
