@<TRIPOS>MOLECULE
molecule
   50    52     1     0     0
SMALL
bcc


@<TRIPOS>ATOM
      1 C1           0.0000     0.0000     0.0000 ca         1 ZH1      -0.146000
      2 C2           1.3810     0.0000     0.0000 ca         1 ZH1      -0.104000
      3 C3           4.2130     0.5480    -0.3650 ca         1 ZH1      -0.097500
      4 C4           3.9940     2.5270     0.9870 ca         1 ZH1      -0.097500
      5 C5          -0.6970    -0.0010     1.1910 ca         1 ZH1      -0.095000
      6 C6           5.5550     0.8140    -0.5450 ca         1 ZH1      -0.143500
      7 C7           5.3450     2.7940     0.8050 ca         1 ZH1      -0.143500
      8 C8           1.3890    -0.0000     2.4110 ca         1 ZH1      -0.063000
      9 C9           3.4320     1.4030     0.4000 cp         1 ZH1      -0.043000
     10 C10          2.0820     0.0000     1.2060 cp         1 ZH1      -0.064000
     11 C11         -0.0060    -0.0060     2.4060 ca         1 ZH1      -0.113600
     12 C12          6.1250     1.9380     0.0400 ca         1 ZH1       0.094100
     13 C13         -0.8180     0.3160     3.6710 c          1 ZH1       0.646700
     14 C14         10.3490     1.6540    -0.6670 c3         1 ZH1       0.133100
     15 C15         10.8250     1.2450     0.6710 c3         1 ZH1       0.119100
     16 C16          9.4460     2.8110    -0.6110 c3         1 ZH1       0.112100
     17 C17          9.6540     0.9860     1.6700 c3         1 ZH1       0.148100
     18 C18          8.3030     2.6020     0.3270 c3         1 ZH1       0.290900
     19 C19         -2.2860    -0.2840     5.4130 c3         1 ZH1       0.126700
     20 C20         10.1590     0.7600     2.9630 c3         1 ZH1       0.149400
     21 O21         -0.6690     1.3540     4.2230 o          1 ZH1      -0.494000
     22 O22          8.7430     2.2120     1.6730 os         1 ZH1      -0.405600
     23 O23         11.5160     2.0040    -1.4980 oh         1 ZH1      -0.603800
     24 O24         11.6070     0.0580     0.5370 oh         1 ZH1      -0.608800
     25 O25         10.2110     3.9830    -0.1670 oh         1 ZH1      -0.584800
     26 O26          9.0910     0.6160     3.8640 oh         1 ZH1      -0.589800
     27 O27          7.4780     1.5980    -0.1860 os         1 ZH1      -0.318900
     28 O28         -1.7730    -0.6010     4.1440 os         1 ZH1      -0.429900
     29 H1          -0.5420     0.0000    -0.9380 ha         1 ZH1       0.136000
     30 H2           1.9220     0.0010    -0.9380 ha         1 ZH1       0.140000
     31 H3           3.7690    -0.3280    -0.8220 ha         1 ZH1       0.147000
     32 H4           3.3850     3.1950     1.5840 ha         1 ZH1       0.147000
     33 H5          -1.7800    -0.0010     1.1850 ha         1 ZH1       0.143000
     34 H6           6.1650     0.1470    -1.1420 ha         1 ZH1       0.150000
     35 H7           5.7900     3.6700     1.2610 ha         1 ZH1       0.150000
     36 H8           1.9320    -0.0000     3.3490 ha         1 ZH1       0.149000
     37 H14          9.8240     0.8210    -1.1210 h1         1 ZH1       0.063700
     38 H15         11.4470     2.0380     1.0700 h1         1 ZH1       0.069700
     39 H16          9.0540     2.9970    -1.6040 h1         1 ZH1       0.053700
     40 H17          9.0990     0.1200     1.3300 h1         1 ZH1       0.077700
     41 H18          7.7380     3.5240     0.3980 h2         1 ZH1       0.083700
     42 H19         -2.7820     0.6780     5.3720 h1         1 ZH1       0.043700
     43 H19A        -2.9960    -1.0440     5.7160 h1         1 ZH1       0.043700
     44 H19B        -1.4750    -0.2410     6.1300 h1         1 ZH1       0.043700
     45 H20         10.7740     1.6000     3.2630 h1         1 ZH1       0.032200
     46 H20A        10.7560    -0.1440     2.9650 h1         1 ZH1       0.032200
     47 HO23        11.4750     1.5320    -2.3130 ho         1 ZH1       0.401000
     48 HO24        12.5210     0.2710     0.6320 ho         1 ZH1       0.415000
     49 HO25        10.0800     4.6920    -0.7750 ho         1 ZH1       0.403000
     50 HO26         9.4280     0.4120     4.7200 ho         1 ZH1       0.402000
@<TRIPOS>BOND
     1     2     1 ar
     2     1     5 ar
     3     1    29 1
     4     2    10 ar
     5     2    30 1
     6     6     3 ar
     7     3     9 ar
     8     3    31 1
     9     9     4 ar
    10     7     4 ar
    11     4    32 1
    12     5    11 ar
    13     5    33 1
    14     6    12 ar
    15     6    34 1
    16    12     7 ar
    17     7    35 1
    18    10     8 ar
    19     8    11 ar
    20     8    36 1
    21     9    10 1
    22    11    13 1
    23    27    12 1
    24    28    13 1
    25    13    21 2
    26    23    14 1
    27    14    16 1
    28    14    15 1
    29    14    37 1
    30    24    15 1
    31    15    17 1
    32    15    38 1
    33    16    18 1
    34    16    25 1
    35    16    39 1
    36    17    22 1
    37    17    20 1
    38    17    40 1
    39    27    18 1
    40    18    22 1
    41    18    41 1
    42    28    19 1
    43    19    42 1
    44    19    43 1
    45    19    44 1
    46    20    26 1
    47    20    45 1
    48    20    46 1
    49    23    47 1
    50    24    48 1
    51    25    49 1
    52    26    50 1
@<TRIPOS>SUBSTRUCTURE
     1 ZH1         1 TEMP              0 ****  ****    0 ROOT
