@<TRIPOS>MOLECULE
molecule
   47    48     1     0     0
SMALL
bcc


@<TRIPOS>ATOM
      1 C10          0.0000     0.0000     0.0000 ca         1 ZH2      -0.078500
      2 C13         -0.6970     0.0150     3.6360 cg         1 ZH2      -0.105000
      3 C15         -2.2660    -0.0560     5.7430 ch         1 ZH2      -0.029000
      4 C17         -4.0780    -0.2130     7.6980 ca         1 ZH2      -0.040000
      5 C20         -5.7780    -0.7500     9.9220 ca         1 ZH2       0.155600
      6 C22         -6.0600    -0.8850     8.5620 ca         1 ZH2      -0.167500
      7 C24          1.4190     0.0110     2.3940 ca         1 ZH2      -0.127000
      8 C26          4.3600     1.4380    -3.0530 c3         1 ZH2       0.133100
      9 C28          2.9460     1.7370    -3.4700 c3         1 ZH2      -0.148100
     10 C02          5.5820    -0.5990    -2.3410 c          1 ZH2       0.731100
     11 N03          6.7680    -0.4790    -3.5470 ns         1 ZH2      -0.655400
     12 O04          8.1470    -0.5690    -2.8910 oh         1 ZH2      -0.348100
     13 C05          4.2150     0.0010    -2.5490 c3         1 ZH2      -0.050300
     14 N06          3.4830     0.0000    -1.2790 ns         1 ZH2      -0.545900
     15 C07          2.1360     0.0010    -1.2790 c          1 ZH2       0.649700
     16 O08          1.5260     0.0000    -2.3310 o          1 ZH2      -0.617100
     17 C09          1.3980     0.0000     0.0000 ca         1 ZH2      -0.131600
     18 C11         -0.6820     0.0050     1.1820 ca         1 ZH2      -0.127000
     19 C12          0.0180     0.0100     2.3960 ca         1 ZH2       0.018000
     20 C14         -1.2660     0.0270     4.6630 ch         1 ZH2      -0.034000
     21 C16         -2.9090     0.1650     6.5230 cg         1 ZH2      -0.051000
     22 C18         -3.6780    -0.0370     9.1040 ca         1 ZH2      -0.071500
     23 C19         -4.4420    -0.2840     9.8640 ca         1 ZH2      -0.167500
     24 N21         -6.9160    -0.7310    10.9160 nv         1 ZH2      -0.901200
     25 C23         -5.4040    -0.6820     7.5260 ca         1 ZH2      -0.071500
     26 C25          2.1000     0.0000     1.2110 ca         1 ZH2      -0.078500
     27 H1          -0.4710     0.5000    -0.8370 ha         1 ZH2       0.153500
     28 H2          -7.0170    -1.0990     8.1020 ha         1 ZH2       0.100000
     29 H3           1.9130     0.2730     3.3220 ha         1 ZH2       0.153000
     30 H4           5.0610     1.2050    -3.8450 h1         1 ZH2       0.066700
     31 H5           3.3340     2.5170    -4.1140 hc         1 ZH2       0.058700
     32 H6           2.6510     0.9740    -4.1790 hc         1 ZH2       0.058700
     33 H7           2.1040     1.9620    -2.8270 hc         1 ZH2       0.058700
     34 H8           6.2620    -0.1480    -4.3450 hn         1 ZH2       0.330500
     35 H9           8.6980    -0.2760    -3.5970 ho         1 ZH2       0.383000
     36 H10          3.6700    -0.5850    -3.2790 h1         1 ZH2       0.107700
     37 H11          3.7340     0.3900    -0.3920 hn         1 ZH2       0.329500
     38 H12         -1.6800     0.0300     1.6040 ha         1 ZH2       0.153000
     39 H13         -2.5980    -0.1090     9.0930 ha         1 ZH2       0.146000
     40 H14         -4.1310    -0.3050    10.9010 ha         1 ZH2       0.100000
     41 H15         -7.8060    -0.6240    10.4700 hn         1 ZH2       0.445800
     42 H16         -6.5960    -0.5130    11.8390 hn         1 ZH2       0.445800
     43 H17         -5.7720    -1.0810     6.5890 ha         1 ZH2       0.146000
     44 H18          3.1530    -0.0800     1.4540 ha         1 ZH2       0.153500
     45 H19          4.1100     3.0760    -2.1140 ho         1 ZH2       0.418000
     46 O27          4.6990     2.3430    -2.0450 oh         1 ZH2      -0.584800
     47 O01          5.7800    -0.7940    -1.3870 o          1 ZH2      -0.368100
@<TRIPOS>BOND
     1    24     5 1
     2     5     6 ar
     3     5    23 ar
     4     6    25 ar
     5    23    22 ar
     6    25     4 ar
     7    22     4 ar
     8     4    21 1
     9    21     3 3
    10     3    20 1
    11    20     2 3
    12     2    19 1
    13    19    18 ar
    14    19     7 ar
    15    18     1 ar
    16     7    26 ar
    17     1    17 ar
    18    26    17 ar
    19    17    15 1
    20    15    14 1
    21    15    16 2
    22    14    13 1
    23    47    10 2
    24    10    13 1
    25    10    11 1
    26    13     8 1
    27    12    11 1
    28     9     8 1
    29     8    46 1
    30     1    27 1
    31     6    28 1
    32     7    29 1
    33     8    30 1
    34     9    31 1
    35     9    32 1
    36     9    33 1
    37    11    34 1
    38    12    35 1
    39    13    36 1
    40    14    37 1
    41    18    38 1
    42    22    39 1
    43    23    40 1
    44    24    41 1
    45    24    42 1
    46    25    43 1
    47    26    44 1
    48    46    45 1
@<TRIPOS>SUBSTRUCTURE
     1 ZH2         1 TEMP              0 ****  ****    0 ROOT
