@<TRIPOS>MOLECULE
ZH2
   47    48     1     0     0
SMALL
bcc


@<TRIPOS>ATOM
      1 C10          0.0000     0.0000     0.0000 ca         1 ZH2      -0.045500
      2 C13         -0.6970     0.0150     3.6360 cg         1 ZH2      -0.115000
      3 C15         -2.2660    -0.0560     5.7430 ch         1 ZH2      -0.023000
      4 C17         -4.0780    -0.2130     7.6980 ca         1 ZH2       0.000000
      5 C20         -5.7780    -0.7500     9.9220 ca         1 ZH2       0.028600
      6 C22         -6.0600    -0.8850     8.5620 ca         1 ZH2      -0.138000
      7 C24          1.4190     0.0110     2.3940 ca         1 ZH2      -0.112500
      8 C26          4.3600     1.4380    -3.0530 c3         1 ZH2       0.179100
      9 C28          2.9460     1.7370    -3.4700 c3         1 ZH2      -0.087100
     10 C02          5.5820    -0.5990    -2.3410 c          1 ZH2       0.691100
     11 N03          6.7680    -0.4790    -3.5470 ns         1 ZH2      -0.364400
     12 O04          8.1470    -0.5690    -2.8910 oh         1 ZH2      -0.398100
     13 C05          4.2150     0.0010    -2.5490 c3         1 ZH2      -0.173300
     14 N06          3.4830     0.0000    -1.2790 ns         1 ZH2      -0.162900
     15 C07          2.1360     0.0010    -1.2790 c          1 ZH2       0.577700
     16 O08          1.5260     0.0000    -2.3310 o          1 ZH2      -0.658100
     17 C09          1.3980     0.0000     0.0000 ca         1 ZH2      -0.140600
     18 C11         -0.6820     0.0050     1.1820 ca         1 ZH2      -0.112500
     19 C12          0.0180     0.0100     2.3960 ca         1 ZH2       0.037000
     20 C14         -1.2660     0.0270     4.6630 ch         1 ZH2      -0.011000
     21 C16         -2.9090     0.1650     6.5230 cg         1 ZH2      -0.068000
     22 C18         -3.6780    -0.0370     9.1040 ca         1 ZH2      -0.065000
     23 C19         -4.4420    -0.2840     9.8640 ca         1 ZH2      -0.138000
     24 N21         -6.9160    -0.7310    10.9160 nv         1 ZH2      -0.447200
     25 C23         -5.4040    -0.6820     7.5260 ca         1 ZH2      -0.065000
     26 C25          2.1000     0.0000     1.2110 ca         1 ZH2      -0.045500
     27 H1          -0.4710     0.5000    -0.8370 ha         1 ZH2       0.123000
     28 H2          -7.0170    -1.0990     8.1020 ha         1 ZH2       0.073500
     29 H3           1.9130     0.2730     3.3220 ha         1 ZH2       0.124000
     30 H4           5.0610     1.2050    -3.8450 h1         1 ZH2       0.037700
     31 H5           3.3340     2.5170    -4.1140 hc         1 ZH2       0.034367
     32 H6           2.6510     0.9740    -4.1790 hc         1 ZH2       0.034367
     33 H7           2.1040     1.9620    -2.8270 hc         1 ZH2       0.034367
     34 H8           6.2620    -0.1480    -4.3450 hn         1 ZH2       0.208500
     35 H9           8.6980    -0.2760    -3.5970 ho         1 ZH2       0.376000
     36 H10          3.6700    -0.5850    -3.2790 h1         1 ZH2       0.085700
     37 H11          3.7340     0.3900    -0.3920 hn         1 ZH2       0.193500
     38 H12         -1.6800     0.0300     1.6040 ha         1 ZH2       0.124000
     39 H13         -2.5980    -0.1090     9.0930 ha         1 ZH2       0.116500
     40 H14         -4.1310    -0.3050    10.9010 ha         1 ZH2       0.073500
     41 H15         -7.8060    -0.6240    10.4700 hn         1 ZH2       0.281800
     42 H16         -6.5960    -0.5130    11.8390 hn         1 ZH2       0.281800
     43 H17         -5.7720    -1.0810     6.5890 ha         1 ZH2       0.116500
     44 H18          3.1530    -0.0800     1.4540 ha         1 ZH2       0.123000
     45 H19          4.1100     3.0760    -2.1140 ho         1 ZH2       0.409000
     46 O27          4.6990     2.3430    -2.0450 oh         1 ZH2      -0.580800
     47 O01          5.7800    -0.7940    -1.3870 o          1 ZH2      -0.410100
@<TRIPOS>BOND
     1     1    17 ar  
     2     1    18 ar  
     3     1    27 1   
     4     2    19 1   
     5     2    20 3   
     6     3    20 1   
     7     3    21 3   
     8     4    21 1   
     9     4    22 ar  
    10     4    25 ar  
    11     5     6 ar  
    12     5    23 ar  
    13     5    24 1   
    14     6    25 ar  
    15     6    28 1   
    16     7    19 ar  
    17     7    26 ar  
    18     7    29 1   
    19     8     9 1   
    20     8    13 1   
    21     8    30 1   
    22     8    46 1   
    23     9    31 1   
    24     9    32 1   
    25     9    33 1   
    26    10    11 1   
    27    10    13 1   
    28    10    47 2   
    29    11    12 1   
    30    11    34 1   
    31    12    35 1   
    32    13    14 1   
    33    13    36 1   
    34    14    15 1   
    35    14    37 1   
    36    15    16 2   
    37    15    17 1   
    38    17    26 ar  
    39    18    19 ar  
    40    18    38 1   
    41    22    23 ar  
    42    22    39 1   
    43    23    40 1   
    44    24    41 1   
    45    24    42 1   
    46    25    43 1   
    47    26    44 1   
    48    45    46 1   
@<TRIPOS>SUBSTRUCTURE
     1 ZH2         1 TEMP              0 ****  ****    0 ROOT
