@<TRIPOS>MOLECULE
molecule
   45    46     1     0     0
SMALL
bcc


@<TRIPOS>ATOM
      1 C10          0.0000     0.0000     0.0000 ca         1 ZH4      -0.093000
      2 C13         -0.7000     0.0150     3.6350 cg         1 ZH4      -0.088000
      3 C15         -2.4500     0.2540     5.4760 ch         1 ZH4      -0.054000
      4 C17         -4.1440     0.6820     7.7450 ca         1 ZH4       0.083000
      5 C20         -5.6660     0.7330     9.9850 ca         1 ZH4      -0.105000
      6 C21         -6.2660     0.0820     8.6220 ca         1 ZH4       0.101600
      7 C22         -5.3270     0.1760     7.6600 ca         1 ZH4      -0.165000
      8 C24          1.4170     0.0090     2.3940 ca         1 ZH4      -0.126000
      9 C26          4.3630     1.4380    -3.0500 c3         1 ZH4       0.141100
     10 C28          3.2070     1.6290    -3.6430 c3         1 ZH4      -0.159100
     11 C02          5.5820    -0.6000    -2.3380 c          1 ZH4       0.248100
     12 N03          6.8110    -0.0120    -2.8550 n2         1 ZH4       0.200700
     13 O04          7.7080    -0.2630    -2.5110 o          1 ZH4       0.048300
     14 C05          4.2160     0.0010    -2.5470 c3         1 ZH4       0.093700
     15 N06          3.4840     0.0000    -1.2780 ns         1 ZH4      -0.522900
     16 C07          2.1370     0.0010    -1.2780 c          1 ZH4       0.635700
     17 O08          1.5280     0.0020    -2.3310 o          1 ZH4      -0.633100
     18 C09          1.3990     0.0000     0.0000 ca         1 ZH4      -0.121600
     19 C11         -0.6840     0.0050     1.1810 ca         1 ZH4      -0.126000
     20 C12          0.0170     0.0110     2.3950 ca         1 ZH4       0.045000
     21 C14         -1.2740     0.0050     4.6590 ch         1 ZH4      -0.030000
     22 C16         -3.0140     0.7200     6.3340 cg         1 ZH4      -0.103000
     23 C18         -3.5530     1.3100     9.0430 ca         1 ZH4      -0.091000
     24 C19         -4.9630     2.0060     9.6210 ca         1 ZH4      -0.068000
     25 N23         -7.2740    -1.0010     8.7860 nv         1 ZH4      -0.931200
     26 C25          2.0980     0.0000     1.2110 ca         1 ZH4      -0.093000
     27 H10         -0.5780    -0.2920    -0.8690 ha         1 ZH4       0.156500
     28 H20         -6.5950     0.6890    10.5400 ha         1 ZH4       0.087000
     29 H22         -5.6140    -0.5260     6.8860 ha         1 ZH4       0.123000
     30 H24          2.0570     0.3450     3.2010 ha         1 ZH4       0.145000
     31 H26          5.2370     1.5010    -3.6870 h1         1 ZH4       0.068700
     32 H28          2.5090     1.6820    -2.8170 hc         1 ZH4       0.072367
     33 H28A         3.1330     2.6600    -3.9670 hc         1 ZH4       0.072367
     34 H28B         2.7680     1.1490    -4.5100 hc         1 ZH4       0.072367
     35 H05          3.6720    -0.5840    -3.2790 h1         1 ZH4       0.108700
     36 HN06         3.6140     0.3810    -0.3620 hn         1 ZH4       0.341500
     37 H11         -1.7040     0.3650     1.2380 ha         1 ZH4       0.145000
     38 H18         -2.6610     1.8490     8.7510 ha         1 ZH4       0.130000
     39 H19         -4.6140     2.4070    10.5640 ha         1 ZH4       0.091000
     40 HN23        -7.9020    -0.6110     9.4600 hn         1 ZH4       0.460800
     41 HN2A        -7.1760    -1.8310     8.2350 hn         1 ZH4       0.460800
     42 H25          3.0670     0.3580     1.5360 ha         1 ZH4       0.156500
     43 HO27         5.0790     2.9630    -2.0550 ho         1 ZH4       0.378000
     44 O27          4.8060     2.2140    -1.5520 oh         1 ZH4      -0.634800
     45 O01          5.4900    -1.1260    -1.1140 o          1 ZH4      -0.520100
@<TRIPOS>BOND
     1    19     1 ar
     2     1    18 ar
     3     1    27 1
     4    21     2 3
     5     2    20 1
     6    22     3 3
     7     3    21 1
     8     7     4 ar
     9    23     4 ar
    10     4    22 1
    11     5     6 ar
    12     5    24 ar
    13     5    28 1
    14    25     6 1
    15     6     7 ar
    16     7    29 1
    17    20     8 ar
    18     8    26 ar
    19     8    30 1
    20    14     9 1
    21    10     9 1
    22     9    44 1
    23     9    31 1
    24    10    32 1
    25    10    33 1
    26    10    34 1
    27    45    11 2
    28    14    11 1
    29    11    12 1
    30    13    12 2
    31    15    14 1
    32    14    35 1
    33    16    15 1
    34    15    36 1
    35    18    16 1
    36    16    17 2
    37    26    18 ar
    38    20    19 ar
    39    19    37 1
    40    24    23 ar
    41    23    38 1
    42    24    39 1
    43    25    40 1
    44    25    41 1
    45    26    42 1
    46    44    43 1
@<TRIPOS>SUBSTRUCTURE
     1 ZH4         1 TEMP              0 ****  ****    0 ROOT
