@<TRIPOS>MOLECULE
molecule
   28    29     1     0     0
SMALL
bcc


@<TRIPOS>ATOM
      1 C13          0.0000     0.0000     0.0000 c3         1 ZHA      -0.177400
      2 C01         -0.2650    -2.8150     2.5920 ca         1 ZHA      -0.051000
      3 C02          0.2590    -1.7590     1.8380 ca         1 ZHA      -0.194600
      4 C03          1.4530    -1.1420     2.2240 ca         1 ZHA      -0.020300
      5 C04          2.1090    -1.5900     3.3530 ca         1 ZHA      -0.183000
      6 C05          1.5810    -2.6400     4.0970 ca         1 ZHA       0.084600
      7 C06          0.3910    -3.2480     3.7090 ca         1 ZHA      -0.149000
      8 N07          2.2490    -3.0850     5.2360 ns         1 ZHA      -0.482100
      9 C08          1.5470    -3.5180     6.3020 c          1 ZHA       0.657100
     10 C09          2.2630    -3.9030     7.5700 c3         1 ZHA      -0.171100
     11 O10          0.3380    -3.5970     6.2400 o          1 ZHA      -0.588100
     12 C11          2.0410     0.0000     1.4400 c3         1 ZHA      -0.042100
     13 C12          1.5350     0.0000     0.0000 c3         1 ZHA      -0.076400
     14 C14         -0.4520    -1.3000     0.6310 c          1 ZHA       0.581700
     15 O15         -1.3680    -1.9420     0.1620 o          1 ZHA      -0.528100
     16 H1          -0.3560     0.0420    -1.0220 hc         1 ZHA       0.072200
     17 H2          -0.3560     0.8290     0.5990 hc         1 ZHA       0.072200
     18 H3          -1.1920    -3.2880     2.2900 ha         1 ZHA       0.156000
     19 H4           3.0360    -1.1220     3.6600 ha         1 ZHA       0.132000
     20 H5          -0.0150    -4.0660     4.2930 ha         1 ZHA       0.170000
     21 H6           3.2490    -3.1130     5.2500 hn         1 ZHA       0.325500
     22 H7           2.6500    -3.0120     8.0510 hc         1 ZHA       0.064700
     23 H8           3.0830    -4.5700     7.3340 hc         1 ZHA       0.064700
     24 H9           1.5720    -4.4020     8.2380 hc         1 ZHA       0.064700
     25 H10          3.1200    -0.0930     1.4360 hc         1 ZHA       0.055200
     26 H11          1.7610     0.9340     1.9130 hc         1 ZHA       0.055200
     27 H12          1.8840    -0.8990    -0.4930 hc         1 ZHA       0.052700
     28 H13          1.8840     0.8990    -0.4930 hc         1 ZHA       0.052700
@<TRIPOS>BOND
     1    11     9 2
     2     9    10 1
     3     9     8 1
     4     7     2 ar
     5     7     6 ar
     6     2     3 ar
     7    15    14 2
     8     8     6 1
     9     6     5 ar
    10     3    14 1
    11     3     4 ar
    12    14     1 1
    13     5     4 ar
    14     4    12 1
    15     1    13 1
    16    12    13 1
    17     1    16 1
    18     1    17 1
    19     2    18 1
    20     5    19 1
    21     7    20 1
    22     8    21 1
    23    10    22 1
    24    10    23 1
    25    10    24 1
    26    12    25 1
    27    12    26 1
    28    13    27 1
    29    13    28 1
@<TRIPOS>SUBSTRUCTURE
     1 ZHA         1 TEMP              0 ****  ****    0 ROOT
