@<TRIPOS>MOLECULE
ZHA
   28    29     1     0     0
SMALL
bcc


@<TRIPOS>ATOM
      1 C13          0.0000     0.0000     0.0000 c3         1 ZHA      -0.119400
      2 C01         -0.2650    -2.8150     2.5920 ca         1 ZHA      -0.014000
      3 C02          0.2590    -1.7590     1.8380 ca         1 ZHA      -0.200600
      4 C03          1.4530    -1.1420     2.2240 ca         1 ZHA      -0.020300
      5 C04          2.1090    -1.5900     3.3530 ca         1 ZHA      -0.158000
      6 C05          1.5810    -2.6400     4.0970 ca         1 ZHA      -0.057400
      7 C06          0.3910    -3.2480     3.7090 ca         1 ZHA      -0.131000
      8 N07          2.2490    -3.0850     5.2360 ns         1 ZHA      -0.040100
      9 C08          1.5470    -3.5180     6.3020 c          1 ZHA       0.560100
     10 C09          2.2630    -3.9030     7.5700 c3         1 ZHA      -0.068100
     11 O10          0.3380    -3.5970     6.2400 o          1 ZHA      -0.628100
     12 C11          2.0410     0.0000     1.4400 c3         1 ZHA       0.025900
     13 C12          1.5350     0.0000     0.0000 c3         1 ZHA      -0.018400
     14 C14         -0.4520    -1.3000     0.6310 c          1 ZHA       0.631700
     15 O15         -1.3680    -1.9420     0.1620 o          1 ZHA      -0.559100
     16 H1          -0.3560     0.0420    -1.0220 hc         1 ZHA       0.040200
     17 H2          -0.3560     0.8290     0.5990 hc         1 ZHA       0.040200
     18 H3          -1.1920    -3.2880     2.2900 ha         1 ZHA       0.124000
     19 H4           3.0360    -1.1220     3.6600 ha         1 ZHA       0.110000
     20 H5          -0.0150    -4.0660     4.2930 ha         1 ZHA       0.151000
     21 H6           3.2490    -3.1130     5.2500 hn         1 ZHA       0.168500
     22 H7           2.6500    -3.0120     8.0510 hc         1 ZHA       0.024700
     23 H8           3.0830    -4.5700     7.3340 hc         1 ZHA       0.024700
     24 H9           1.5720    -4.4020     8.2380 hc         1 ZHA       0.024700
     25 H10          3.1200    -0.0930     1.4360 hc         1 ZHA       0.023200
     26 H11          1.7610     0.9340     1.9130 hc         1 ZHA       0.023200
     27 H12          1.8840    -0.8990    -0.4930 hc         1 ZHA       0.021200
     28 H13          1.8840     0.8990    -0.4930 hc         1 ZHA       0.021200
@<TRIPOS>BOND
     1     1    13 1   
     2     1    14 1   
     3     1    16 1   
     4     1    17 1   
     5     2     3 ar  
     6     2     7 ar  
     7     2    18 1   
     8     3     4 ar  
     9     3    14 1   
    10     4     5 ar  
    11     4    12 1   
    12     5     6 ar  
    13     5    19 1   
    14     6     7 ar  
    15     6     8 1   
    16     7    20 1   
    17     8     9 1   
    18     8    21 1   
    19     9    10 1   
    20     9    11 2   
    21    10    22 1   
    22    10    23 1   
    23    10    24 1   
    24    12    13 1   
    25    12    25 1   
    26    12    26 1   
    27    13    27 1   
    28    13    28 1   
    29    14    15 2   
@<TRIPOS>SUBSTRUCTURE
     1 ZHA         1 TEMP              0 ****  ****    0 ROOT
