@<TRIPOS>MOLECULE
molecule
   25    25     1     0     0
SMALL
bcc


@<TRIPOS>ATOM
      1 N2           0.0000     0.0000     0.0000 nz         1 ZHH      -0.797600
      2 CA           1.4390     0.0000     0.0000 c3         1 ZHH       0.071800
      3 CB           2.0220     0.0000     1.4180 c3         1 ZHH      -0.031100
      4 CG           3.5130     0.0210     1.4500 ca         1 ZHH      -0.178300
      5 CD2          4.2270    -1.1760     1.4580 ca         1 ZHH      -0.072500
      6 CE2          5.6220    -1.1570     1.4890 ca         1 ZHH      -0.181000
      7 CZ           6.3020     0.0610     1.5100 ca         1 ZHH       0.178100
      8 O1           7.6620     0.0800     1.5410 os         1 ZHH      -0.311900
      9 CF1          8.2940     1.3600     1.5620 c3         1 ZHH       0.123700
     10 CE1          5.5870     1.2590     1.5010 ca         1 ZHH      -0.181000
     11 CD1          4.1930     1.2390     1.4710 ca         1 ZHH      -0.072500
     12 HN21        -0.3340    -0.8150     0.4750 hn         1 ZHH       0.455800
     13 HN22        -0.3340     0.8190     0.4690 hn         1 ZHH       0.455800
     14 HA1          1.7890     0.8810    -0.5230 hx         1 ZHH       0.112200
     15 HA2          1.7890    -0.8810    -0.5230 hx         1 ZHH       0.112200
     16 HB1          1.6780    -0.8880     1.9340 hc         1 ZHH       0.061700
     17 HB2          1.6520     0.8720     1.9440 hc         1 ZHH       0.061700
     18 HD2          3.6990    -2.1220     1.4420 ha         1 ZHH       0.132000
     19 HE2          6.1760    -2.0870     1.4950 ha         1 ZHH       0.159000
     20 HF11         9.3690     1.2320     1.5850 h1         1 ZHH       0.051700
     21 HF12         8.0150     1.9140     0.6740 h1         1 ZHH       0.051700
     22 HF13         7.9760     1.9050     2.4420 h1         1 ZHH       0.051700
     23 HE1          6.1150     2.2040     1.5180 ha         1 ZHH       0.159000
     24 HD1          3.6380     2.1690     1.4640 ha         1 ZHH       0.132000
     25 H23         -0.3340    -0.0300    -0.9430 hn         1 ZHH       0.455800
@<TRIPOS>BOND
     1     1     2 1
     2     1    12 1
     3     1    13 1
     4     2     3 1
     5     2    14 1
     6     2    15 1
     7     3     4 1
     8     3    16 1
     9     3    17 1
    10     4     5 ar
    11     4    11 ar
    12     5     6 ar
    13     5    18 1
    14     6     7 ar
    15     6    19 1
    16     7     8 1
    17     7    10 ar
    18     8     9 1
    19     9    20 1
    20     9    21 1
    21     9    22 1
    22    10    11 ar
    23    10    23 1
    24    11    24 1
    25    25     1 1
@<TRIPOS>SUBSTRUCTURE
     1 ZHH         1 TEMP              0 ****  ****    0 ROOT
