@<TRIPOS>MOLECULE
ZHK
   49    51     1     0     0
SMALL
bcc


@<TRIPOS>ATOM
      1 C1           0.0000     0.0000     0.0000 c3         1 ZHK       0.000900
      2 C2           1.5300     0.0000     0.0000 c3         1 ZHK       0.003400
      3 C3           2.0320     0.0000     1.4210 c          1 ZHK       0.616100
      4 O4           2.3200     1.0460     1.9630 o          1 ZHK      -0.572100
      5 N5           2.1610    -1.1630     2.0900 ns         1 ZHK      -0.068100
      6 C6           2.7180    -1.1740     3.3730 ca         1 ZHK      -0.023400
      7 C7           2.2830    -2.0990     4.3130 ca         1 ZHK      -0.114000
      8 C8           2.8400    -2.1100     5.5770 ca         1 ZHK       0.004000
      9 C9           3.8300    -1.2030     5.9070 ca         1 ZHK      -0.217500
     10 C10          4.2650    -0.2810     4.9730 ca         1 ZHK       0.004000
     11 C11          3.7130    -0.2640     3.7070 ca         1 ZHK      -0.114000
     12 S12          4.5380    -1.2210     7.5200 sy         1 ZHK       0.929200
     13 O13          5.0620     0.0800     7.7430 o          1 ZHK      -0.497300
     14 O14          3.5760    -1.8270     8.3730 o          1 ZHK      -0.497300
     15 N15          5.8360    -2.2470     7.4750 nz         1 ZHK      -0.152500
     16 S16          2.1330     1.4780    -0.8520 ss         1 ZHK      -0.220300
     17 C17          1.5440     1.1540    -2.4810 cc         1 ZHK       0.313800
     18 N18          1.7950     2.0580    -3.4690 ns         1 ZHK       0.074600
     19 C20          1.3560     1.8330    -4.7250 c          1 ZHK       0.616700
     20 O21          1.5770     2.6380    -5.6140 o          1 ZHK      -0.634500
     21 C22          0.6310     0.6430    -4.9890 cc         1 ZHK      -0.108900
     22 C23          0.4040    -0.2510    -3.9250 cd         1 ZHK       0.266400
     23 N24          0.8760     0.0400    -2.7110 nd         1 ZHK      -0.595300
     24 C25         -0.3460    -1.5050    -4.1530 ca         1 ZHK      -0.085800
     25 C26         -1.5540    -1.4810    -4.8520 ca         1 ZHK      -0.077000
     26 C27         -2.2510    -2.6520    -5.0620 ca         1 ZHK      -0.079000
     27 C28         -1.7540    -3.8520    -4.5790 ca         1 ZHK      -0.014600
     28 C29         -0.5560    -3.8820    -3.8830 ca         1 ZHK      -0.046600
     29 C30          0.1530    -2.7170    -3.6730 ca         1 ZHK      -0.059000
     30 Cl1          0.0600    -5.3900    -3.2820 cl         1 ZHK      -0.001400
     31 Cl2         -2.6380    -5.3230    -4.8450 cl         1 ZHK       0.019600
     32 C33          0.1420     0.3570    -6.3050 cg         1 ZHK       0.215500
     33 N34         -0.2320     0.1420    -7.3550 n1         1 ZHK      -0.350800
     34 H1          -0.2260     0.5880     0.8810 hc         1 ZHK       0.030700
     35 H2          -0.4690     0.1580    -0.9640 hc         1 ZHK       0.030700
     36 H3          -0.3840    -0.9100     0.4450 hc         1 ZHK       0.030700
     37 H4           1.8910    -0.8840    -0.5110 h1         1 ZHK       0.067700
     38 H5           2.4410    -2.1060     1.9080 hn         1 ZHK       0.197500
     39 H6           1.7410    -2.8820     3.7970 ha         1 ZHK       0.140000
     40 H7           2.4640    -2.9220     6.1880 ha         1 ZHK       0.140000
     41 H8           4.9000     0.5870     5.1050 ha         1 ZHK       0.140000
     42 H9           4.4480     0.3120     3.1570 ha         1 ZHK       0.140000
     43 H10          5.4560    -3.1680     7.5650 hn         1 ZHK       0.323467
     44 H11          6.1230    -1.8620     6.5970 hn         1 ZHK       0.323467
     45 H19          2.3170     2.7330    -2.9460 hn         1 ZHK       0.199500
     46 H12         -1.7740    -0.5840    -5.4190 ha         1 ZHK       0.130000
     47 H13         -3.1220    -2.5060    -5.6890 ha         1 ZHK       0.131000
     48 H14          1.1050    -2.7030    -3.1560 ha         1 ZHK       0.116000
     49 H153         6.5910    -1.8320     7.9830 hn         1 ZHK       0.323467
@<TRIPOS>BOND
     1     1     2 1   
     2     1    34 1   
     3     1    35 1   
     4     1    36 1   
     5     2     3 1   
     6     2    16 1   
     7     2    37 1   
     8     3     4 2   
     9     3     5 1   
    10     5     6 1   
    11     5    38 1   
    12     6     7 ar  
    13     6    11 ar  
    14     7     8 ar  
    15     7    39 1   
    16     8     9 ar  
    17     8    40 1   
    18     9    10 ar  
    19     9    12 1   
    20    10    11 ar  
    21    10    41 1   
    22    11    42 1   
    23    12    13 2   
    24    12    14 2   
    25    12    15 1   
    26    15    43 1   
    27    15    44 1   
    28    15    49 1   
    29    16    17 1   
    30    17    18 1   
    31    17    23 2   
    32    18    19 1   
    33    18    45 1   
    34    19    20 2   
    35    19    21 1   
    36    21    22 2   
    37    21    32 1   
    38    22    23 1   
    39    22    24 1   
    40    24    25 ar  
    41    24    29 ar  
    42    25    26 ar  
    43    25    46 1   
    44    26    27 ar  
    45    26    47 1   
    46    27    28 ar  
    47    27    31 1   
    48    28    29 ar  
    49    28    30 1   
    50    29    48 1   
    51    32    33 3   
@<TRIPOS>SUBSTRUCTURE
     1 ZHK         1 TEMP              0 ****  ****    0 ROOT
