@<TRIPOS>MOLECULE
ZHN
   61    61     1     0     0
SMALL
bcc


@<TRIPOS>ATOM
      1 O28         3.0460    0.3140    1.6250 o         1 ZHN     -0.536000
      2 C20         1.8940    0.7480    1.5820 c         1 ZHN      0.633100
      3 O27         0.9620    0.2040    2.4220 os        1 ZHN     -0.441900
      4 C22         1.4160   -0.8480    3.2920 c3        1 ZHN      0.138400
      5 C23         0.2160   -1.2480    4.1280 c3        1 ZHN     -0.086400
      6 C24         0.5930   -2.3600    5.0820 c3        1 ZHN     -0.078400
      7 C25        -0.5920   -2.7760    5.9290 c3        1 ZHN     -0.079400
      8 C26        -0.2260   -3.8840    6.8820 c3        1 ZHN     -0.093100
      9 C19         1.3490    1.8630    0.7390 c3        1 ZHN     -0.095100
     10 C4          0.8680    1.4130   -0.5980 ca        1 ZHN      0.042700
     11 C3          0.4850    0.0850   -0.7830 ca        1 ZHN     -0.197000
     12 C2          0.0020   -0.3320   -2.0330 ca        1 ZHN      0.192100
     13 O8         -0.3580   -1.6510   -2.1400 oh        1 ZHN     -0.485100
     14 C5          0.7810    2.3430   -1.6550 ca        1 ZHN     -0.230600
     15 C6          0.2910    1.8950   -2.8990 ca        1 ZHN      0.202100
     16 O7          0.2010    2.8150   -3.9160 oh        1 ZHN     -0.497100
     17 C1         -0.1030    0.5650   -3.1010 ca        1 ZHN     -0.315000
     18 C9          1.1760    3.7560   -1.4540 c         1 ZHN      0.598700
     19 O18         0.9150    4.3560   -0.4030 o         1 ZHN     -0.546100
     20 C10         1.9140    4.4130   -2.5860 c3        1 ZHN     -0.169400
     21 C11         2.8360    5.5130   -2.1070 c3        1 ZHN     -0.076400
     22 C12         3.4840    6.2250   -3.2750 c3        1 ZHN     -0.077400
     23 C13         4.4190    7.3160   -2.7990 c3        1 ZHN     -0.079400
     24 C14         5.0650    8.0330   -3.9650 c3        1 ZHN     -0.078400
     25 C15         6.0000    9.1240   -3.4890 c3        1 ZHN     -0.079400
     26 C16         6.6470    9.8430   -4.6540 c3        1 ZHN     -0.080400
     27 C17         7.5790   10.9290   -4.1840 c3        1 ZHN     -0.092100
     28 H1          2.2560   -0.4580    3.9250 h1        1 ZHN      0.052200
     29 H2          1.7920   -1.6970    2.6640 h1        1 ZHN      0.052200
     30 H3         -0.6160   -1.5800    3.4540 hc        1 ZHN      0.055200
     31 H4         -0.1560   -0.3570    4.6990 hc        1 ZHN      0.055200
     32 H5          0.9690   -3.2440    4.5020 hc        1 ZHN      0.042700
     33 H6          1.4290   -2.0200    5.7480 hc        1 ZHN      0.042700
     34 H7         -1.4280   -3.1140    5.2610 hc        1 ZHN      0.040700
     35 H8         -0.9680   -1.8900    6.5060 hc        1 ZHN      0.040700
     36 H9          0.1280   -4.7840    6.3240 hc        1 ZHN      0.033700
     37 H10        -1.1120   -4.1750    7.4960 hc        1 ZHN      0.033700
     38 H11         0.5900   -3.5580    7.5720 hc        1 ZHN      0.033700
     39 H12         0.4930    2.3620    1.2770 hc        1 ZHN      0.108200
     40 H13         2.1690    2.6260    0.6280 hc        1 ZHN      0.108200
     41 H14         0.5440   -0.6440    0.0410 ha        1 ZHN      0.167000
     42 H15        -0.6690   -1.8100   -3.0440 ho        1 ZHN      0.424000
     43 H16        -0.2020    2.3810   -4.6840 ho        1 ZHN      0.426000
     44 H17        -0.4860    0.2380   -4.0770 ha        1 ZHN      0.141000
     45 H18         1.1430    4.8350   -3.2900 hc        1 ZHN      0.075200
     46 H19         2.4930    3.6400   -3.1560 hc        1 ZHN      0.075200
     47 H20         3.6270    5.0770   -1.4420 hc        1 ZHN      0.052700
     48 H21         2.2520    6.2450   -1.4870 hc        1 ZHN      0.052700
     49 H22         4.0540    5.4860   -3.8980 hc        1 ZHN      0.038700
     50 H23         2.6910    6.6700   -3.9320 hc        1 ZHN      0.038700
     51 H24         5.2140    6.8710   -2.1440 hc        1 ZHN      0.042200
     52 H25         3.8490    8.0520   -2.1720 hc        1 ZHN      0.042200
     53 H26         5.6340    7.2960   -4.5910 hc        1 ZHN      0.038700
     54 H27         4.2700    8.4790   -4.6190 hc        1 ZHN      0.038700
     55 H28         6.7950    8.6780   -2.8340 hc        1 ZHN      0.040200
     56 H29         5.4310    9.8600   -2.8620 hc        1 ZHN      0.040200
     57 H30         7.2140    9.1040   -5.2800 hc        1 ZHN      0.037700
     58 H31         5.8500   10.2860   -5.3070 hc        1 ZHN      0.037700
     59 H32         8.3950   10.5030   -3.5510 hc        1 ZHN      0.032367
     60 H33         8.0440   11.4460   -5.0580 hc        1 ZHN      0.032367
     61 H34         7.0270   11.6880   -3.5780 hc        1 ZHN      0.032367
@<TRIPOS>BOND
     1    1    2 2   
     2    2    3 1   
     3    2    9 1   
     4    3    4 1   
     5    4    5 1   
     6    4   28 1   
     7    4   29 1   
     8    5    6 1   
     9    5   30 1   
    10    5   31 1   
    11    6    7 1   
    12    6   32 1   
    13    6   33 1   
    14    7    8 1   
    15    7   34 1   
    16    7   35 1   
    17    8   36 1   
    18    8   37 1   
    19    8   38 1   
    20    9   10 1   
    21    9   39 1   
    22    9   40 1   
    23   10   11 ar  
    24   10   14 ar  
    25   11   12 ar  
    26   11   41 1   
    27   12   13 1   
    28   12   17 ar  
    29   13   42 1   
    30   14   15 ar  
    31   14   18 1   
    32   15   16 1   
    33   15   17 ar  
    34   16   43 1   
    35   17   44 1   
    36   18   19 2   
    37   18   20 1   
    38   20   21 1   
    39   20   45 1   
    40   20   46 1   
    41   21   22 1   
    42   21   47 1   
    43   21   48 1   
    44   22   23 1   
    45   22   49 1   
    46   22   50 1   
    47   23   24 1   
    48   23   51 1   
    49   23   52 1   
    50   24   25 1   
    51   24   53 1   
    52   24   54 1   
    53   25   26 1   
    54   25   55 1   
    55   25   56 1   
    56   26   27 1   
    57   26   57 1   
    58   26   58 1   
    59   27   59 1   
    60   27   60 1   
    61   27   61 1   
@<TRIPOS>SUBSTRUCTURE
     1 ZHN         1 TEMP              0 ****  ****    0 ROOT
