@<TRIPOS>MOLECULE
molecule
   61    61     1     0     0
SMALL
bcc


@<TRIPOS>ATOM
      1 O28          0.0000     0.0000     0.0000 o          1 ZHN      -0.521000
      2 C20          1.2080     0.0000     0.0000 c          1 ZHN       0.628100
      3 O27          1.8800     0.0000     1.1620 os         1 ZHN      -0.434900
      4 C22          1.0880     0.0020     2.3800 c3         1 ZHN       0.149400
      5 C23          2.0210     0.0030     3.5930 c3         1 ZHN      -0.086400
      6 C24          1.1890     0.0050     4.8760 c3         1 ZHN      -0.080400
      7 C25          2.1210     0.0060     6.0900 c3         1 ZHN      -0.082400
      8 C26          1.2880     0.0080     7.3720 c3         1 ZHN      -0.092100
      9 C19          1.9610    -0.0090    -1.3060 c3         1 ZHN      -0.083100
     10 C4           0.9810    -0.0150    -2.4500 ca         1 ZHN      -0.005300
     11 C3           0.6060    -1.1970    -3.0190 ca         1 ZHN      -0.164000
     12 C2          -0.3000    -1.2130    -4.0780 ca         1 ZHN       0.153100
     13 O8          -0.6660    -2.3950    -4.6350 oh         1 ZHN      -0.518100
     14 C5           0.4530     1.1920    -2.9260 ca         1 ZHN      -0.174600
     15 C6          -0.4610     1.1800    -3.9960 ca         1 ZHN       0.172100
     16 O7          -0.9790     2.3420    -4.4650 oh         1 ZHN      -0.499100
     17 C1          -0.8290    -0.0270    -4.5660 ca         1 ZHN      -0.236000
     18 C9           0.8510     2.4630    -2.3140 c          1 ZHN       0.582700
     19 O18          0.2390     2.8940    -1.3590 o          1 ZHN      -0.497100
     20 C10          2.0210     3.2340    -2.8690 c3         1 ZHN      -0.177400
     21 C11          2.2230     4.5120    -2.0540 c3         1 ZHN      -0.073400
     22 C12          3.4100     5.2950    -2.6180 c3         1 ZHN      -0.083400
     23 C13          3.6110     6.5730    -1.8030 c3         1 ZHN      -0.080400
     24 C14          4.7990     7.3560    -2.3670 c3         1 ZHN      -0.082400
     25 C15          5.0010     8.6350    -1.5510 c3         1 ZHN      -0.081400
     26 C16          6.1880     9.4170    -2.1150 c3         1 ZHN      -0.084400
     27 C17          6.3900    10.6960    -1.3000 c3         1 ZHN      -0.092100
     28 H1           0.4640     0.8870     2.4040 h1         1 ZHN       0.052700
     29 H2           0.4630    -0.8820     2.4060 h1         1 ZHN       0.052700
     30 H3           2.6460     0.8870     3.5670 hc         1 ZHN       0.052700
     31 H4           2.6450    -0.8820     3.5690 hc         1 ZHN       0.052700
     32 H5           0.5650     0.8900     4.9010 hc         1 ZHN       0.045200
     33 H6           0.5630    -0.8790     4.9020 hc         1 ZHN       0.045200
     34 H7           2.7470     0.8890     6.0640 hc         1 ZHN       0.041200
     35 H8           2.7450    -0.8800     6.0660 hc         1 ZHN       0.041200
     36 H9           0.6560    -0.8720     7.3950 hc         1 ZHN       0.034033
     37 H10          0.6690     0.8970     7.4000 hc         1 ZHN       0.034033
     38 H11          1.9480     0.0010     8.2320 hc         1 ZHN       0.034033
     39 H12          2.5830    -0.8950    -1.3580 hc         1 ZHN       0.080200
     40 H13          2.5850     0.8740    -1.3690 hc         1 ZHN       0.080200
     41 H14          1.0130    -2.1280    -2.6450 ha         1 ZHN       0.147000
     42 H15         -0.1290    -2.5670    -5.3900 ho         1 ZHN       0.423000
     43 H16         -1.8600     2.1940    -4.7670 ho         1 ZHN       0.432000
     44 H17         -1.5320    -0.0450    -5.3900 ha         1 ZHN       0.146000
     45 H18          2.9150     2.6250    -2.8130 hc         1 ZHN       0.066700
     46 H19          1.8250     3.4930    -3.9030 hc         1 ZHN       0.066700
     47 H20          1.3290     5.1210    -2.1100 hc         1 ZHN       0.055700
     48 H21          2.4190     4.2530    -1.0200 hc         1 ZHN       0.055700
     49 H22          3.2140     5.5530    -3.6510 hc         1 ZHN       0.039200
     50 H23          4.3040     4.6860    -2.5610 hc         1 ZHN       0.039200
     51 H24          2.7170     7.1820    -1.8600 hc         1 ZHN       0.043700
     52 H25          3.8070     6.3150    -0.7690 hc         1 ZHN       0.043700
     53 H26          4.6040     7.6140    -3.4010 hc         1 ZHN       0.040200
     54 H27          5.6930     6.7470    -2.3100 hc         1 ZHN       0.040200
     55 H28          5.1960     8.3770    -0.5170 hc         1 ZHN       0.041700
     56 H29          4.1070     9.2450    -1.6090 hc         1 ZHN       0.041700
     57 H30          5.9920     9.6750    -3.1490 hc         1 ZHN       0.039700
     58 H31          7.0820     8.8070    -2.0580 hc         1 ZHN       0.039700
     59 H32          5.4950    11.3030    -1.3520 hc         1 ZHN       0.032367
     60 H33          7.2280    11.2530    -1.7020 hc         1 ZHN       0.032367
     61 H34          6.5920    10.4380    -0.2670 hc         1 ZHN       0.032367
@<TRIPOS>BOND
     1    26    27 1
     2    26    25 1
     3    23    24 1
     4    23    22 1
     5    24    25 1
     6    22    21 1
     7    21    20 1
     8    20    18 1
     9     9    10 1
    10     9     2 1
    11     6     7 1
    12     6     5 1
    13    11    10 ar
    14    11    12 ar
    15    10    14 ar
    16     4     3 1
    17     4     5 1
    18    13    12 1
    19    12    17 ar
    20    14    18 1
    21    14    15 ar
    22     7     8 1
    23    18    19 2
    24     3     2 1
    25    17    15 ar
    26    15    16 1
    27     2     1 2
    28     4    28 1
    29     4    29 1
    30     5    30 1
    31     5    31 1
    32     6    32 1
    33     6    33 1
    34     7    34 1
    35     7    35 1
    36     8    36 1
    37     8    37 1
    38     8    38 1
    39     9    39 1
    40     9    40 1
    41    11    41 1
    42    13    42 1
    43    16    43 1
    44    17    44 1
    45    20    45 1
    46    20    46 1
    47    21    47 1
    48    21    48 1
    49    22    49 1
    50    22    50 1
    51    23    51 1
    52    23    52 1
    53    24    53 1
    54    24    54 1
    55    25    55 1
    56    25    56 1
    57    26    57 1
    58    26    58 1
    59    27    59 1
    60    27    60 1
    61    27    61 1
@<TRIPOS>SUBSTRUCTURE
     1 ZHN         1 TEMP              0 ****  ****    0 ROOT
