@<TRIPOS>MOLECULE
molecule
   24    24     1     0     0
SMALL
bcc


@<TRIPOS>ATOM
      1 O2           0.0000     0.0000     0.0000 o          1 ZHZ      -0.363100
      2 CA           1.2280     0.0000     0.0000 c          1 ZHZ       0.475100
      3 N2           1.9920     0.0000     1.1480 nz         1 ZHZ      -0.694400
      4 CB           2.0700    -0.0030    -1.2650 c3         1 ZHZ      -0.089100
      5 CG           1.2690     0.0680    -2.5220 ca         1 ZHZ      -0.185300
      6 CD2          0.8410    -1.1050    -3.1430 ca         1 ZHZ      -0.060000
      7 CE2          0.0930    -1.0380    -4.3190 ca         1 ZHZ      -0.181000
      8 CZ          -0.2270     0.2020    -4.8730 ca         1 ZHZ       0.187100
      9 O1          -0.9550     0.2660    -6.0200 os         1 ZHZ      -0.309900
     10 CF1         -1.2470     1.5660    -6.5320 c3         1 ZHZ       0.122700
     11 CE1          0.2010     1.3740    -4.2510 ca         1 ZHZ      -0.181000
     12 CD1          0.9500     1.3080    -3.0760 ca         1 ZHZ      -0.060000
     13 HN21         2.5240     0.8460     1.1940 hn         1 ZHZ       0.473467
     14 HN22         2.6120    -0.7850     1.1350 hn         1 ZHZ       0.473467
     15 HB1          2.7410     0.8470    -1.2350 hc         1 ZHZ       0.087200
     16 HB2          2.6620    -0.9110    -1.2840 hc         1 ZHZ       0.087200
     17 HD2          1.0900    -2.0670    -2.7130 ha         1 ZHZ       0.131500
     18 HE2         -0.2390    -1.9500    -4.8010 ha         1 ZHZ       0.161000
     19 HF11        -0.3210     2.0850    -6.7470 h1         1 ZHZ       0.052367
     20 HF12        -1.8290     1.4740    -7.4410 h1         1 ZHZ       0.052367
     21 HF13        -1.8120     2.1250    -5.7970 h1         1 ZHZ       0.052367
     22 HE1         -0.0470     2.3370    -4.6810 ha         1 ZHZ       0.161000
     23 HD1          1.2820     2.2190    -2.5930 ha         1 ZHZ       0.131500
     24 H23          1.3940    -0.0860     1.9460 hn         1 ZHZ       0.473467
@<TRIPOS>BOND
     1     1     2 2
     2     2     3 1
     3     2     4 1
     4     3    13 1
     5     3    14 1
     6     4     5 1
     7     4    15 1
     8     4    16 1
     9     5     6 ar
    10     5    12 ar
    11     6     7 ar
    12     6    17 1
    13     7     8 ar
    14     7    18 1
    15     8     9 1
    16     8    11 ar
    17     9    10 1
    18    10    19 1
    19    10    20 1
    20    10    21 1
    21    11    12 ar
    22    11    22 1
    23    12    23 1
    24    24     3 1
@<TRIPOS>SUBSTRUCTURE
     1 ZHZ         1 TEMP              0 ****  ****    0 ROOT
