@<TRIPOS>MOLECULE
molecule
   35    37     1     0     0
SMALL
bcc


@<TRIPOS>ATOM
      1 F5           0.0000     0.0000     0.0000 f          1 ZI7      -0.214300
      2 C15          1.3990     0.0000     0.0000 c3         1 ZI7       0.683200
      3 F3           1.8660     0.0000     1.3190 f          1 ZI7      -0.214300
      4 F4           1.8660    -1.1410    -0.6600 f          1 ZI7      -0.214300
      5 C12          1.9010     1.2310    -0.7100 ca         1 ZI7      -0.310600
      6 C11          1.0030     2.1460    -1.2370 ca         1 ZI7       0.497200
      7 N3           1.4250     3.2240    -1.8590 nb         1 ZI7      -0.650000
      8 C10          2.7200     3.4880    -2.0110 ca         1 ZI7       0.480600
      9 S1           3.5430     4.8380    -2.7890 ss         1 ZI7      -0.121500
     10 C13          3.2550     1.4560    -0.8330 ca         1 ZI7       0.028000
     11 C14          3.6930     2.6160    -1.5080 ca         1 ZI7      -0.022900
     12 N2           4.9480     3.0370    -1.7460 nc         1 ZI7      -0.536100
     13 C9           5.1040     4.1360    -2.3840 cd         1 ZI7       0.373200
     14 C8           6.4370     4.7460    -2.7320 c3         1 ZI7       0.138100
     15 O2           6.8640     4.2630    -4.0080 os         1 ZI7      -0.293900
     16 C4           8.0570     4.7200    -4.4730 ca         1 ZI7       0.124100
     17 C5           8.8020     5.6100    -3.7150 ca         1 ZI7      -0.125000
     18 C6          10.0170     6.0790    -4.1810 ca         1 ZI7      -0.117000
     19 C3           8.5310     4.2900    -5.7040 ca         1 ZI7       0.168900
     20 F2           7.8080     3.4190    -6.4420 f          1 ZI7      -0.105900
     21 C2           9.7580     4.7620    -6.1800 ca         1 ZI7      -0.272600
     22 C7          10.4980     5.6650    -5.4080 ca         1 ZI7       0.161900
     23 F1          11.6850     6.1260    -5.8590 f          1 ZI7      -0.119900
     24 C1          10.2700     4.3110    -7.4870 c          1 ZI7       0.526700
     25 O1           9.9900     4.9290    -8.4960 o          1 ZI7      -0.363100
     26 N1          11.0490     3.2120    -7.5640 nz         1 ZI7      -0.680400
     27 H1          -0.0610     1.9700    -1.1350 h4         1 ZI7       0.060100
     28 H2           3.9580     0.6650    -0.6030 ha         1 ZI7       0.171000
     29 H3           7.1670     4.4730    -1.9800 h1         1 ZI7       0.067700
     30 H4           6.3420     5.8250    -2.7680 h1         1 ZI7       0.067700
     31 H5           8.4310     5.9390    -2.7510 ha         1 ZI7       0.178000
     32 H6          10.5910     6.7760    -3.5830 ha         1 ZI7       0.185000
     33 H7          11.9760     3.4790    -7.8280 hn         1 ZI7       0.482467
     34 H8          11.0730     2.7580    -6.6730 hn         1 ZI7       0.482467
     35 H13         10.6740     2.5850    -8.2480 hn         1 ZI7       0.482467
@<TRIPOS>BOND
     1    15    14 1
     2    15    16 1
     3    17    16 ar
     4    17    18 ar
     5    14    13 1
     6    16    19 ar
     7    18    22 ar
     8    26    24 1
     9    19    20 1
    10    19    21 ar
    11    22    21 ar
    12    22    23 1
    13    21    24 1
    14    13    12 2
    15    13     9 1
    16    12    11 1
    17    24    25 2
    18    11    10 ar
    19    11     8 ar
    20     9     8 1
    21    10     5 ar
    22     8     7 ar
    23     3     2 1
    24     5     2 1
    25     5     6 ar
    26     1     2 1
    27     7     6 ar
    28     2     4 1
    29     6    27 1
    30    10    28 1
    31    14    29 1
    32    14    30 1
    33    17    31 1
    34    18    32 1
    35    26    33 1
    36    26    34 1
    37    35    26 1
@<TRIPOS>SUBSTRUCTURE
     1 ZI7         1 TEMP              0 ****  ****    0 ROOT
