@<TRIPOS>MOLECULE
ZI7
   35    37     1     0     0
SMALL
bcc


@<TRIPOS>ATOM
      1 F5           0.0000     0.0000     0.0000 f          1 ZI7      -0.199967
      2 C15          1.3990     0.0000     0.0000 c3         1 ZI7       0.650200
      3 F3           1.8660     0.0000     1.3190 f          1 ZI7      -0.199967
      4 F4           1.8660    -1.1410    -0.6600 f          1 ZI7      -0.199967
      5 C12          1.9010     1.2310    -0.7100 ca         1 ZI7      -0.330600
      6 C11          1.0030     2.1460    -1.2370 ca         1 ZI7       0.481200
      7 N3           1.4250     3.2240    -1.8590 nb         1 ZI7      -0.513000
      8 C10          2.7200     3.4880    -2.0110 ca         1 ZI7       0.485600
      9 S1           3.5430     4.8380    -2.7890 ss         1 ZI7      -0.250500
     10 C13          3.2550     1.4560    -0.8330 ca         1 ZI7       0.070000
     11 C14          3.6930     2.6160    -1.5080 ca         1 ZI7      -0.077900
     12 N2           4.9480     3.0370    -1.7460 nc         1 ZI7      -0.390100
     13 C9           5.1040     4.1360    -2.3840 cd         1 ZI7       0.338200
     14 C8           6.4370     4.7460    -2.7320 c3         1 ZI7       0.217100
     15 O2           6.8640     4.2630    -4.0080 os         1 ZI7      -0.272900
     16 C4           8.0570     4.7200    -4.4730 ca         1 ZI7       0.145100
     17 C5           8.8020     5.6100    -3.7150 ca         1 ZI7      -0.105000
     18 C6          10.0170     6.0790    -4.1810 ca         1 ZI7      -0.070000
     19 C3           8.5310     4.2900    -5.7040 ca         1 ZI7       0.137900
     20 F2           7.8080     3.4190    -6.4420 f          1 ZI7      -0.102900
     21 C2           9.7580     4.7620    -6.1800 ca         1 ZI7      -0.274600
     22 C7          10.4980     5.6650    -5.4080 ca         1 ZI7       0.132900
     23 F1          11.6850     6.1260    -5.8590 f          1 ZI7      -0.111900
     24 C1          10.2700     4.3110    -7.4870 c          1 ZI7       0.374700
     25 O1           9.9900     4.9290    -8.4960 o          1 ZI7      -0.372100
     26 N1          11.0490     3.2120    -7.5640 nz         1 ZI7       0.204600
     27 H1          -0.0610     1.9700    -1.1350 h4         1 ZI7       0.010100
     28 H2           3.9580     0.6650    -0.6030 ha         1 ZI7       0.131000
     29 H3           7.1670     4.4730    -1.9800 h1         1 ZI7       0.023200
     30 H4           6.3420     5.8250    -2.7680 h1         1 ZI7       0.023200
     31 H5           8.4310     5.9390    -2.7510 ha         1 ZI7       0.149000
     32 H6          10.5910     6.7760    -3.5830 ha         1 ZI7       0.147000
     33 H7          11.9760     3.4790    -7.8280 hn         1 ZI7       0.249467
     34 H8          11.0730     2.7580    -6.6730 hn         1 ZI7       0.249467
     35 H13         10.6740     2.5850    -8.2480 hn         1 ZI7       0.249467
@<TRIPOS>BOND
     1     1     2 1   
     2     2     3 1   
     3     2     4 1   
     4     2     5 1   
     5     5     6 ar  
     6     5    10 ar  
     7     6     7 ar  
     8     6    27 1   
     9     7     8 ar  
    10     8     9 1   
    11     8    11 ar  
    12     9    13 1   
    13    10    11 ar  
    14    10    28 1   
    15    11    12 1   
    16    12    13 2   
    17    13    14 1   
    18    14    15 1   
    19    14    29 1   
    20    14    30 1   
    21    15    16 1   
    22    16    17 ar  
    23    16    19 ar  
    24    17    18 ar  
    25    17    31 1   
    26    18    22 ar  
    27    18    32 1   
    28    19    20 1   
    29    19    21 ar  
    30    21    22 ar  
    31    21    24 1   
    32    22    23 1   
    33    24    25 2   
    34    24    26 1   
    35    26    33 1   
    36    26    34 1   
    37    26    35 1   
@<TRIPOS>SUBSTRUCTURE
     1 ZI7         1 TEMP              0 ****  ****    0 ROOT
