@<TRIPOS>MOLECULE
ZIG
   53    57     1     0     0
SMALL
bcc


@<TRIPOS>ATOM
      1 C1           0.0000     0.0000     0.0000 c3         1 ZIG       0.258700
      2 C2           5.2600     0.0110     5.1440 ca         1 ZIG      -0.094000
      3 C3           5.2300    -4.7550    -0.6670 ca         1 ZIG      -0.175000
      4 C4           5.8440     0.0170     6.3710 ca         1 ZIG      -0.129300
      5 C5           5.5200    -3.4120    -0.8080 ca         1 ZIG       0.062000
      6 C6           0.6050    -0.9400     9.2290 ca         1 ZIG      -0.179300
      7 C7           3.4950    -0.0000     9.8030 ca         1 ZIG      -0.204300
      8 C8          -0.7730    -0.8860     9.1090 ca         1 ZIG       0.363200
      9 C9           4.8840     0.0100     9.8390 ca         1 ZIG       0.404200
     10 C10          3.0510     0.0070     6.1330 ca         1 ZIG      -0.121000
     11 C11          4.4340    -4.3510     1.5590 ca         1 ZIG      -0.194000
     12 C12          4.0580    -0.0010     2.5170 ca         1 ZIG      -0.090000
     13 C13          0.6720     0.9040     7.7000 ca         1 ZIG       0.356200
     14 C14          1.8670    -0.0050     3.5110 ca         1 ZIG       0.431200
     15 C15          3.8620     0.0060     5.0110 cp         1 ZIG       0.005000
     16 C16          4.6830    -5.2260     0.5160 ca         1 ZIG       0.185900
     17 C17          1.3620    -0.0110     8.5010 cp         1 ZIG      -0.116300
     18 C18          2.8410     0.0000     8.5790 cp         1 ZIG      -0.008000
     19 C19          5.0470     0.0120     7.5310 ca         1 ZIG       0.368600
     20 C20          5.2670    -2.5360     0.2310 ca         1 ZIG      -0.207500
     21 C21          3.2520     0.0000     3.6600 cp         1 ZIG      -0.176300
     22 C22          3.6360     0.0010     7.4030 ca         1 ZIG      -0.123300
     23 C23          3.4400    -0.0010     1.2750 ca         1 ZIG      -0.093700
     24 C24          4.7210    -3.0040     1.4140 ca         1 ZIG       0.231900
     25 C25          2.0440    -0.0000     1.2100 ca         1 ZIG       0.598600
     26 N26          5.6070     0.0160     8.7450 nb         1 ZIG      -0.556000
     27 N27         -1.3320     0.0220     8.3300 nb         1 ZIG      -0.282000
     28 N28          1.3160    -0.0000     2.3130 nb         1 ZIG      -0.641000
     29 N29         -0.6460     0.8740     7.6610 nb         1 ZIG      -0.278000
     30 O31          6.3620    -0.4450     1.2130 o          1 ZIG      -0.581300
     31 O32          6.1480    -0.6600    -1.2670 o          1 ZIG      -0.581300
     32 O33          1.4290     0.0000     0.0000 os         1 ZIG      -0.438100
     33 F35          4.4740    -2.1480     2.4290 f          1 ZIG      -0.114900
     34 S36          5.6400    -0.8240     0.0500 sy         1 ZIG       1.046200
     35 H1          -0.3610     0.0000    -1.0210 h1         1 ZIG       0.001367
     36 H1A         -0.3610     0.8840     0.5110 h1         1 ZIG       0.001367
     37 H1B         -0.3610    -0.8850     0.5110 h1         1 ZIG       0.001367
     38 H2           5.8810     0.0100     4.2570 ha         1 ZIG       0.131000
     39 H3           5.4270    -5.4410    -1.4820 ha         1 ZIG       0.131000
     40 H4           6.9230     0.0210     6.4560 ha         1 ZIG       0.121000
     41 H5           5.9480    -3.0450    -1.7340 ha         1 ZIG       0.137000
     42 H6           1.0830    -1.6750     9.8650 ha         1 ZIG       0.125000
     43 H7           2.9260    -0.0050    10.7250 ha         1 ZIG       0.117000
     44 H8          -1.3920    -1.5860     9.6560 h4         1 ZIG      -0.006900
     45 H9           5.3850     0.0100    10.8000 h4         1 ZIG      -0.019900
     46 H10          1.9730     0.0020     6.0270 ha         1 ZIG       0.129000
     47 H11          4.0070    -4.7170     2.4840 ha         1 ZIG       0.142000
     48 H12          5.1380     0.0010     2.5990 ha         1 ZIG       0.195000
     49 H13          1.2170     1.6400     7.1210 h4         1 ZIG       0.005100
     50 H14          1.2350    -0.0050     4.3900 h4         1 ZIG      -0.011900
     51 HN30         3.9050     0.5330    -0.6900 hn         1 ZIG       0.356800
     52 N30          4.2040    -0.0010     0.1020 nu         1 ZIG      -0.364500
     53 F34          4.3930    -6.5380     0.6510 f          1 ZIG      -0.116900
@<TRIPOS>BOND
     1     1    32 1   
     2     1    35 1   
     3     1    36 1   
     4     1    37 1   
     5     2     4 ar  
     6     2    15 ar  
     7     2    38 1   
     8     3     5 ar  
     9     3    16 ar  
    10     3    39 1   
    11     4    19 ar  
    12     4    40 1   
    13     5    20 ar  
    14     5    41 1   
    15     6     8 ar  
    16     6    17 ar  
    17     6    42 1   
    18     7     9 ar  
    19     7    18 ar  
    20     7    43 1   
    21     8    27 ar  
    22     8    44 1   
    23     9    26 ar  
    24     9    45 1   
    25    10    15 ar  
    26    10    22 ar  
    27    10    46 1   
    28    11    16 ar  
    29    11    24 ar  
    30    11    47 1   
    31    12    21 ar  
    32    12    23 ar  
    33    12    48 1   
    34    13    17 ar  
    35    13    29 ar  
    36    13    49 1   
    37    14    21 ar  
    38    14    28 ar  
    39    14    50 1   
    40    15    21 1   
    41    16    53 1   
    42    17    18 1   
    43    18    22 ar  
    44    19    22 ar  
    45    19    26 ar  
    46    20    24 ar  
    47    20    34 1   
    48    23    25 ar  
    49    23    52 1   
    50    24    33 1   
    51    25    28 ar  
    52    25    32 1   
    53    27    29 ar  
    54    30    34 2   
    55    31    34 2   
    56    34    52 1   
    57    51    52 1   
@<TRIPOS>SUBSTRUCTURE
     1 ZIG         1 TEMP              0 ****  ****    0 ROOT
