@<TRIPOS>MOLECULE
molecule
   56    56     1     0     0
SMALL
bcc


@<TRIPOS>ATOM
      1 C12          0.0000     0.0000     0.0000 c          1 ZIL       0.745100
      2 O3           1.2150     0.0000     0.0000 o          1 ZIL      -0.636000
      3 O4          -0.6730     0.0000     1.1660 os         1 ZIL      -0.437900
      4 C13          0.1180    -0.0020     2.3830 c3         1 ZIL       0.215700
      5 C14         -0.8000    -0.0010     3.5790 ca         1 ZIL      -0.092300
      6 C15         -1.2260     1.1950     4.1240 ca         1 ZIL      -0.101500
      7 C16         -2.0670     1.1940     5.2200 ca         1 ZIL      -0.136000
      8 C17         -2.4850    -0.0030     5.7720 ca         1 ZIL      -0.124000
      9 C18         -2.0610    -1.2000     5.2250 ca         1 ZIL      -0.136000
     10 C19         -1.2210    -1.2000     4.1260 ca         1 ZIL      -0.101500
     11 N1          -0.6740     0.0070    -1.1670 ns         1 ZIL      -0.542900
     12 C4           0.0550     0.1200    -2.4330 c3         1 ZIL       0.055700
     13 C5          -0.8330     0.7620    -3.4680 c          1 ZIL       0.655100
     14 O           -2.0240     0.8660    -3.2650 o          1 ZIL      -0.620100
     15 C2           0.4670    -1.2750    -2.9090 c3         1 ZIL      -0.076700
     16 C1           1.3300    -1.1500    -4.1660 c3         1 ZIL      -0.101400
     17 C3          -0.7840    -2.0950    -3.2290 c3         1 ZIL      -0.101100
     18 C            2.6580    -0.4810    -3.8100 c3         1 ZIL      -0.100100
     19 N           -0.3020     1.2200    -4.6190 ns         1 ZIL      -0.543900
     20 C6          -1.1440     1.9400    -5.5780 c3         1 ZIL       0.002700
     21 C11         -1.8520     0.9510    -6.4660 c          1 ZIL       0.888600
     22 O1          -1.6730    -0.2340    -6.3150 o          1 ZIL      -0.840300
     23 C7          -0.2710     2.8600    -6.4340 c3         1 ZIL      -0.072400
     24 C8           0.3580     3.9370    -5.5460 c3         1 ZIL      -0.085700
     25 C9           1.3220     4.7840    -6.3780 c3         1 ZIL      -0.086600
     26 C10         -0.7430     4.8320    -4.9730 c3         1 ZIL      -0.086600
     27 O2          -2.6840     1.3860    -7.4270 o          1 ZIL      -0.840300
     28 H23          0.7440     0.8820     2.4080 h1         1 ZIL       0.052700
     29 H24          0.7420    -0.8870     2.4070 h1         1 ZIL       0.052700
     30 H25         -0.8990     2.1340     3.6930 ha         1 ZIL       0.135500
     31 H26         -2.4000     2.1330     5.6480 ha         1 ZIL       0.127000
     32 H27         -3.1440    -0.0030     6.6320 ha         1 ZIL       0.124000
     33 H28         -2.3890    -2.1380     5.6560 ha         1 ZIL       0.127000
     34 H29         -0.8890    -2.1380     3.6990 ha         1 ZIL       0.135500
     35 H22         -1.6740    -0.0220    -1.1670 hn         1 ZIL       0.348500
     36 H9           0.9400     0.7280    -2.2880 h1         1 ZIL       0.078700
     37 H5           1.0330    -1.7700    -2.1300 hc         1 ZIL       0.052700
     38 H3           0.8100    -0.5500    -4.9030 hc         1 ZIL       0.067700
     39 H4           1.5200    -2.1360    -4.5730 hc         1 ZIL       0.067700
     40 H6          -1.2800    -1.6740    -4.0950 hc         1 ZIL       0.048033
     41 H7          -0.5010    -3.1200    -3.4380 hc         1 ZIL       0.048033
     42 H8          -1.4580    -2.0730    -2.3810 hc         1 ZIL       0.048033
     43 H            2.4700     0.5200    -3.4390 hc         1 ZIL       0.028033
     44 H1           3.1610    -1.0610    -3.0450 hc         1 ZIL       0.028033
     45 H2           3.2840    -0.4270    -4.6920 hc         1 ZIL       0.028033
     46 H10          0.6780     1.1150    -4.7950 hn         1 ZIL       0.305500
     47 H11         -1.8760     2.5330    -5.0430 h1         1 ZIL       0.073700
     48 H12          0.5120     2.2780    -6.9050 hc         1 ZIL       0.057200
     49 H13         -0.8800     3.3300    -7.1960 hc         1 ZIL       0.057200
     50 H14          0.8990     3.4660    -4.7350 hc         1 ZIL       0.037700
     51 H15          0.7730     5.2920    -7.1620 hc         1 ZIL       0.028367
     52 H16          2.0750     4.1440    -6.8220 hc         1 ZIL       0.028367
     53 H17          1.8020     5.5170    -5.7400 hc         1 ZIL       0.028367
     54 H18         -1.2490     4.3120    -4.1690 hc         1 ZIL       0.028367
     55 H19         -0.3040     5.7460    -4.5920 hc         1 ZIL       0.028367
     56 H20         -1.4560     5.0710    -5.7530 hc         1 ZIL       0.028367
@<TRIPOS>BOND
     1    22    21 1
     2    21    20 1
     3    21    27 1
     4    20    23 1
     5    20    19 1
     6    23    24 1
     7    17    15 1
     8    19    13 1
     9    14    13 2
    10    15    16 1
    11    15    12 1
    12    13    12 1
    13    24    25 1
    14    24    26 1
    15    16    18 1
    16    12    11 1
    17    11     1 1
    18     1     3 1
    19     1     2 2
    20     3     4 1
    21     6     7 ar
    22     6     5 ar
    23     4     5 1
    24     7     8 ar
    25     5    10 ar
    26     8     9 ar
    27    10     9 ar
    28     4    29 1
    29     4    28 1
    30     6    30 1
    31     7    31 1
    32     8    32 1
    33     9    33 1
    34    10    34 1
    35    11    35 1
    36    12    36 1
    37    15    37 1
    38    17    41 1
    39    17    42 1
    40    17    40 1
    41    16    38 1
    42    16    39 1
    43    18    43 1
    44    18    44 1
    45    18    45 1
    46    19    46 1
    47    20    47 1
    48    23    48 1
    49    23    49 1
    50    24    50 1
    51    25    51 1
    52    25    53 1
    53    25    52 1
    54    26    55 1
    55    26    56 1
    56    26    54 1
@<TRIPOS>SUBSTRUCTURE
     1 ZIL         1 TEMP              0 ****  ****    0 ROOT
