@<TRIPOS>MOLECULE
ZIN
   30    32     1     0     0
SMALL
bcc


@<TRIPOS>ATOM
      1 CAA         0.5160   -0.3660   -0.2330 ca        1 ZIN     -0.098300
      2 CAB         1.6840    0.3520    0.0170 ca        1 ZIN      0.091800
      3 CAC        -0.0400   -0.4150   -1.6130 c3        1 ZIN     -0.078400
      4 CAD         2.2360    0.4320    1.3440 ca        1 ZIN      0.335600
      5 CAF        -0.1390   -1.0130    0.8390 ca        1 ZIN     -0.078000
      6 NAG         3.4020    1.1400    1.5730 nb        1 ZIN     -0.676000
      7 CAH        -0.7980   -1.6770   -1.9210 ca        1 ZIN      0.409600
      8 NAI        -0.1370   -2.8620   -1.9120 nb        1 ZIN     -0.656000
      9 CAJ         1.5450   -0.2410    2.3970 ca        1 ZIN     -0.114300
     10 CAK         0.3570   -0.9560    2.1190 ca        1 ZIN     -0.150000
     11 OAM         2.2590    0.9840   -1.0580 oh        1 ZIN     -0.499100
     12 CAT         3.8700    1.1830    2.8060 ca        1 ZIN      0.412200
     13 CAU        -0.8360   -3.9670   -2.2240 ca        1 ZIN      0.396200
     14 CAV        -2.1700   -1.5810   -2.2450 ca        1 ZIN     -0.248300
     15 CAW         2.0920   -0.1640    3.7120 ca        1 ZIN     -0.082000
     16 CAY         3.2470    0.5420    3.9250 ca        1 ZIN     -0.244300
     17 CAZ        -2.2030   -3.9640   -2.5590 ca        1 ZIN     -0.251300
     18 CBA        -2.8740   -2.7420   -2.5680 ca        1 ZIN     -0.093000
     19 HAC         0.8000   -0.3050   -2.3580 hc        1 ZIN      0.074700
     20 HACA       -0.7230    0.4680   -1.7530 hc        1 ZIN      0.074700
     21 HAF        -1.0620   -1.5770    0.6260 ha        1 ZIN      0.141000
     22 HAK        -0.1610   -1.4660    2.9450 ha        1 ZIN      0.136000
     23 HOAM        3.1060    1.3700   -0.7870 ho        1 ZIN      0.446000
     24 HAT         4.8030    1.7570    2.9550 h4        1 ZIN      0.023100
     25 HAU        -0.2620   -4.9110   -2.2050 h4        1 ZIN      0.022100
     26 HAV        -2.6710   -0.6040   -2.2450 ha        1 ZIN      0.143000
     27 HAW         1.5710   -0.6780    4.5340 ha        1 ZIN      0.140000
     28 HAY         3.7050    0.6290    4.9190 ha        1 ZIN      0.145000
     29 HAZ        -2.7180   -4.9010   -2.8060 ha        1 ZIN      0.143000
     30 HBA        -3.9420   -2.6910   -2.8250 ha        1 ZIN      0.137000
@<TRIPOS>BOND
     1    1    2 ar  
     2    1    3 1   
     3    1    5 ar  
     4    2    4 ar  
     5    2   11 1   
     6    3    7 1   
     7    3   19 1   
     8    3   20 1   
     9    4    6 ar  
    10    4    9 ar  
    11    5   10 ar  
    12    5   21 1   
    13    6   12 ar  
    14    7    8 ar  
    15    7   14 ar  
    16    8   13 ar  
    17    9   10 ar  
    18    9   15 ar  
    19   10   22 1   
    20   11   23 1   
    21   12   16 ar  
    22   12   24 1   
    23   13   17 ar  
    24   13   25 1   
    25   14   18 ar  
    26   14   26 1   
    27   15   16 ar  
    28   15   27 1   
    29   16   28 1   
    30   17   18 ar  
    31   17   29 1   
    32   18   30 1   
@<TRIPOS>SUBSTRUCTURE
     1 ZIN         1 TEMP              0 ****  ****    0 ROOT
