@<TRIPOS>MOLECULE
molecule
   30    32     1     0     0
SMALL
bcc


@<TRIPOS>ATOM
      1 CAA          0.0000     0.0000     0.0000 ca         1 ZIN      -0.101300
      2 CAB          1.3660     0.0000     0.0000 ca         1 ZIN       0.102800
      3 CAC         -0.7410     0.0000    -1.3120 c3         1 ZIN      -0.069400
      4 CAD          2.0640     0.0000     1.2260 ca         1 ZIN       0.379600
      5 CAF         -0.7170    -0.0050     1.1920 ca         1 ZIN      -0.102000
      6 NAG          3.3990    -0.0010     1.2610 nb         1 ZIN      -0.672000
      7 CAH         -0.8810    -1.4150    -1.8090 ca         1 ZIN       0.430600
      8 NAI          0.1940    -2.1640    -1.9550 nb         1 ZIN      -0.666000
      9 CAJ          1.3270     0.0010     2.4360 ca         1 ZIN      -0.139300
     10 CAK         -0.0770    -0.0090     2.3950 ca         1 ZIN      -0.130000
     11 OAM          2.0500    -0.0010    -1.1740 oh         1 ZIN      -0.481100
     12 CAT          4.0520    -0.0010     2.3980 ca         1 ZIN       0.426200
     13 CAU          0.1210    -3.4080    -2.3860 ca         1 ZIN       0.425200
     14 CAV         -2.1350    -1.9160    -2.1030 ca         1 ZIN      -0.252300
     15 CAW          2.0240     0.0000     3.6590 ca         1 ZIN      -0.082000
     16 CAY          3.3890    -0.0010     3.6230 ca         1 ZIN      -0.253300
     17 CAZ         -1.1000    -3.9740    -2.7050 ca         1 ZIN      -0.261300
     18 CBA         -2.2530    -3.2190    -2.5590 ca         1 ZIN      -0.094000
     19 HAC         -0.1900     0.5860    -2.0380 hc         1 ZIN       0.062700
     20 HACA        -1.7240     0.4330    -1.1710 hc         1 ZIN       0.062700
     21 HAF         -1.8000    -0.0050     1.1640 ha         1 ZIN       0.133000
     22 HAK         -0.6480    -0.0130     3.3160 ha         1 ZIN       0.134000
     23 HOAM         2.5020     0.8210    -1.2750 ho         1 ZIN       0.420000
     24 HAT          5.1350    -0.0020     2.3840 h4         1 ZIN       0.023100
     25 HAU          1.0270    -3.9920    -2.4950 h4         1 ZIN       0.025100
     26 HAV         -3.0150    -1.2970    -1.9770 ha         1 ZIN       0.134000
     27 HAW          1.4920     0.0010     4.6030 ha         1 ZIN       0.139000
     28 HAY          3.9560    -0.0010     4.5460 ha         1 ZIN       0.137000
     29 HAZ         -1.1540    -4.9960    -3.0590 ha         1 ZIN       0.136000
     30 HBA         -3.2240    -3.6370    -2.7990 ha         1 ZIN       0.135000
@<TRIPOS>BOND
     1     3     1 1
     2     5     1 ar
     3     1     2 ar
     4     2    11 1
     5     2     4 ar
     6     7     3 1
     7     3    19 1
     8     3    20 1
     9     9     4 ar
    10     4     6 ar
    11     5    10 ar
    12     5    21 1
    13     6    12 ar
    14     8     7 ar
    15    14     7 ar
    16    13     8 ar
    17    10     9 ar
    18     9    15 ar
    19    10    22 1
    20    11    23 1
    21    16    12 ar
    22    12    24 1
    23    17    13 ar
    24    13    25 1
    25    18    14 ar
    26    14    26 1
    27    15    16 ar
    28    15    27 1
    29    16    28 1
    30    17    18 ar
    31    17    29 1
    32    18    30 1
@<TRIPOS>SUBSTRUCTURE
     1 ZIN         1 TEMP              0 ****  ****    0 ROOT
