@<TRIPOS>MOLECULE
molecule
   28    29     1     0     0
SMALL
bcc


@<TRIPOS>ATOM
      1 C14          0.0000     0.0000     0.0000 c3         1 ZIP      -0.057900
      2 C13          1.5070     0.0000     0.0000 c2         1 ZIP      -0.102400
      3 C15          2.2600     0.0000     1.3040 c3         1 ZIP      -0.057900
      4 C12          2.1620    -0.0010    -1.1350 c2         1 ZIP      -0.219200
      5 C11          3.6630    -0.1280    -1.1370 c3         1 ZIP       0.270000
      6 N10          4.0580    -1.2520    -1.9900 nu         1 ZIP      -0.885900
      7 C6           5.3960    -1.5640    -2.1480 ca         1 ZIP       0.788200
      8 C5           5.7920    -2.6410    -2.9570 ca         1 ZIP      -0.215200
      9 N9           5.1380    -3.5520    -3.7180 nc         1 ZIP      -0.582100
     10 C4           7.1660    -2.9060    -3.0850 ca         1 ZIP       0.471800
     11 N7           7.2680    -3.9860    -3.9230 na         1 ZIP      -0.358000
     12 C8           6.0030    -4.3450    -4.2830 cd         1 ZIP       0.406700
     13 N3           8.0340    -2.1400    -2.4320 nb         1 ZIP      -0.801000
     14 C2           7.6170    -1.1430    -1.6800 ca         1 ZIP       0.743900
     15 N1           6.3370    -0.8530    -1.5340 nb         1 ZIP      -0.838000
     16 H141        -0.3610     0.1010    -1.0160 hc         1 ZIP       0.045367
     17 H142        -0.3610     0.8300     0.5950 hc         1 ZIP       0.045367
     18 H143        -0.3610    -0.9310     0.4210 hc         1 ZIP       0.045367
     19 H151         2.8010    -0.9320     1.4090 hc         1 ZIP       0.045367
     20 H152         2.9590     0.8270     1.3180 hc         1 ZIP       0.045367
     21 H153         1.5610     0.1050     2.1250 hc         1 ZIP       0.045367
     22 H12          1.6180    -0.0020    -2.0720 ha         1 ZIP       0.130000
     23 H111         4.0130    -0.3010    -0.1260 h1         1 ZIP       0.059200
     24 H112         4.1020     0.7860    -1.5190 h1         1 ZIP       0.059200
     25 H10          3.3600    -1.7860    -2.4680 hn         1 ZIP       0.464800
     26 H7           8.1160    -4.4300    -4.2160 hn         1 ZIP       0.313700
     27 H8           5.7530    -5.1680    -4.9410 h5         1 ZIP       0.077800
     28 H2           8.3510    -0.5380    -1.1610 h5         1 ZIP       0.060100
@<TRIPOS>BOND
     1     1     2 1
     2     1    16 1
     3     1    17 1
     4     1    18 1
     5     2     3 1
     6     2     4 2
     7     3    19 1
     8     3    20 1
     9     3    21 1
    10     4     5 1
    11     4    22 1
    12     5     6 1
    13     5    23 1
    14     5    24 1
    15     6     7 1
    16     6    25 1
    17     7     8 ar
    18     7    15 ar
    19     8     9 1
    20     8    10 ar
    21     9    12 2
    22    10    11 1
    23    10    13 ar
    24    11    12 1
    25    11    26 1
    26    12    27 1
    27    13    14 ar
    28    14    15 ar
    29    14    28 1
@<TRIPOS>SUBSTRUCTURE
     1 ZIP         1 TEMP              0 ****  ****    0 ROOT
