@<TRIPOS>MOLECULE
ZIP
   28    30     1     0     0
SMALL
bcc


@<TRIPOS>ATOM
      1 C14          0.0000     0.0000     0.0000 c3         1 ZIP      -0.124500
      2 C13          1.5070     0.0000     0.0000 c2         1 ZIP       0.116000
      3 C15          2.2600     0.0000     1.3040 c3         1 ZIP      -0.124500
      4 C12          2.1620    -0.0010    -1.1350 c2         1 ZIP      -0.552000
      5 C11          3.6630    -0.1280    -1.1370 DU         1 ZIP      -0.095000
      6 N10          4.0580    -1.2520    -1.9900 nu         1 ZIP       0.141000
      7 C6           5.3960    -1.5640    -2.1480 c2         1 ZIP       0.075000
      8 C5           5.7920    -2.6410    -2.9570 c2         1 ZIP      -0.252000
      9 N9           5.1380    -3.5520    -3.7180 n2         1 ZIP      -0.055000
     10 C4           7.1660    -2.9060    -3.0850 c2         1 ZIP      -0.141000
     11 N7           7.2680    -3.9860    -3.9230 na         1 ZIP       0.330000
     12 C8           6.0030    -4.3450    -4.2830 c2         1 ZIP      -0.244000
     13 N3           8.0340    -2.1400    -2.4320 n2         1 ZIP      -0.165000
     14 C2           7.6170    -1.1430    -1.6800 c2         1 ZIP       0.034000
     15 N1           6.3370    -0.8530    -1.5340 n2         1 ZIP      -0.239000
     16 H141        -0.3610     0.1010    -1.0160 hc         1 ZIP       0.065000
     17 H142        -0.3610     0.8300     0.5950 hc         1 ZIP       0.065000
     18 H143        -0.3610    -0.9310     0.4210 hc         1 ZIP       0.065000
     19 H151         1.5580     0.0710     2.1260 hc         1 ZIP       0.065000
     20 H152         2.9350     0.8470     1.3320 hc         1 ZIP       0.065000
     21 H153         2.8280    -0.9180     1.3930 hc         1 ZIP       0.065000
     22 H12          2.8080     0.8530    -0.9760 DU         1 ZIP       0.302000
     23 H111         4.1020     0.7860    -1.5190 ha         1 ZIP       0.056500
     24 H112         4.0130    -0.3010    -0.1260 ha         1 ZIP       0.056500
     25 H10          3.3600    -1.7850    -2.4690 hn         1 ZIP       0.119000
     26 H7           8.1160    -4.4300    -4.2160 hn         1 ZIP       0.082000
     27 H8           5.7530    -5.1680    -4.9410 h5         1 ZIP       0.160000
     28 H2           8.3510    -0.5380    -1.1610 h5         1 ZIP       0.129000
@<TRIPOS>BOND
     1     1     2 1   
     2     1    16 1   
     3     1    17 1   
     4     1    18 1   
     5     2     3 1   
     6     2     4 1   
     7     3    19 1   
     8     3    20 1   
     9     3    21 1   
    10     4     5 1   
    11     4    22 1   
    12     5     6 1   
    13     5    22 1   
    14     5    23 1   
    15     5    24 1   
    16     6     7 1   
    17     6    25 1   
    18     7     8 1   
    19     7    15 1   
    20     8     9 1   
    21     8    10 1   
    22     9    12 1   
    23    10    11 1   
    24    10    13 1   
    25    11    12 1   
    26    11    26 1   
    27    12    27 1   
    28    13    14 1   
    29    14    15 1   
    30    14    28 1   
@<TRIPOS>SUBSTRUCTURE
     1 ZIP         1 TEMP              0 ****  ****    0 ROOT
