@<TRIPOS>MOLECULE
ZIR
   45    47     1     0     0
SMALL
bcc


@<TRIPOS>ATOM
      1 N1           0.0000     0.0000     0.0000 nb         1 ZIR      -0.762000
      2 C2           1.3200     0.0000     0.0000 ca         1 ZIR       0.689900
      3 N3           2.0270     0.0000     1.1110 nb         1 ZIR      -0.678000
      4 C4           1.4250     0.0010     2.2960 ca         1 ZIR       0.272800
      5 C5           0.0220     0.0010     2.3490 ca         1 ZIR      -0.240200
      6 C6          -0.6880     0.0010     1.1360 ca         1 ZIR       0.593200
      7 N7          -0.3270     0.0020     3.6580 nc         1 ZIR      -0.491100
      8 C8           0.7470     0.0020     4.3940 cd         1 ZIR       0.245700
      9 N9           1.8550     0.0010     3.6000 na         1 ZIR       0.206000
     10 C1'          3.2470    -0.0000     4.0540 c3         1 ZIR       0.150800
     11 N10         -2.0720     0.0020     1.1270 nu         1 ZIR      -0.419900
     12 C11         -2.7950     0.0020    -0.1470 c3         1 ZIR       0.151000
     13 C12         -4.2790     0.0030     0.1180 c2         1 ZIR      -0.558200
     14 C13         -5.0430     0.9090    -0.4410 c2         1 ZIR       0.108600
     15 C14         -6.4940     1.0180    -0.0460 c3         1 ZIR      -0.001900
     16 C15         -4.4720     1.8410    -1.4780 c3         1 ZIR      -0.001900
     17 C2'          3.7740     1.4460     4.1760 c3         1 ZIR       0.128100
     18 O2'          4.5310     1.8030     3.0180 oh         1 ZIR      -0.539800
     19 C3'          4.6810     1.4120     5.4270 c3         1 ZIR       0.127100
     20 O3'          6.0250     1.7460     5.0790 oh         1 ZIR      -0.548800
     21 C4'          4.5940    -0.0530     5.9120 c3         1 ZIR       0.154100
     22 O4'          3.3390    -0.5410     5.3900 os         1 ZIR      -0.384600
     23 C5'          4.5930    -0.1070     7.4410 c3         1 ZIR       0.224400
     24 O5'          4.6290    -1.4700     7.8690 oh         1 ZIR      -0.578800
     25 H2           1.8420    -0.0010    -0.9500 h5         1 ZIR      -0.006900
     26 H8           0.7580     0.0010     5.4770 h5         1 ZIR       0.039800
     27 H1'          3.8700    -0.5700     3.3750 h2         1 ZIR       0.072700
     28 HN10        -2.5780    -0.0140     1.9900 hn         1 ZIR       0.324800
     29 H11         -2.5290     0.8860    -0.7140 h1         1 ZIR       0.015700
     30 H11A        -2.5300    -0.8830    -0.7130 h1         1 ZIR       0.015700
     31 H12         -3.8700    -0.4780    -0.7620 ha         1 ZIR       0.301000
     32 H14         -6.7010     2.0270     0.2900 hc         1 ZIR       0.025367
     33 H14A        -7.1190     0.7860    -0.9000 hc         1 ZIR       0.025367
     34 H14B        -6.7030     0.3210     0.7560 hc         1 ZIR       0.025367
     35 H15         -5.2720     2.4220    -1.9220 hc         1 ZIR       0.025367
     36 H15A        -3.7590     2.5090    -1.0090 hc         1 ZIR       0.025367
     37 H15B        -3.9740     1.2640    -2.2480 hc         1 ZIR       0.025367
     38 H2'          2.9520     2.1360     4.3250 h1         1 ZIR       0.018700
     39 HO2'         4.4400     2.7270     2.8550 ho         1 ZIR       0.392000
     40 H3'          4.3010     2.0840     6.1860 h1         1 ZIR       0.012700
     41 HO3'         6.3200     2.4630     5.6160 ho         1 ZIR       0.386000
     42 H4'          5.4170    -0.6300     5.5100 h1         1 ZIR       0.053700
     43 H5'          5.4630     0.4140     7.8220 h1         1 ZIR      -0.006800
     44 H5'A         3.6940     0.3660     7.8190 h1         1 ZIR      -0.006800
     45 HO5'         4.8790    -1.5080     8.7770 ho         1 ZIR       0.391000
@<TRIPOS>BOND
     1     1     2 ar  
     2     1     6 ar  
     3     2     3 ar  
     4     2    25 1   
     5     3     4 ar  
     6     4     5 ar  
     7     4     9 1   
     8     5     6 ar  
     9     5     7 1   
    10     6    11 1   
    11     7     8 2   
    12     8     9 1   
    13     8    26 1   
    14     9    10 1   
    15    10    17 1   
    16    10    22 1   
    17    10    27 1   
    18    11    12 1   
    19    11    28 1   
    20    12    13 1   
    21    12    29 1   
    22    12    30 1   
    23    13    14 2   
    24    13    31 1   
    25    14    15 1   
    26    14    16 1   
    27    15    32 1   
    28    15    33 1   
    29    15    34 1   
    30    16    35 1   
    31    16    36 1   
    32    16    37 1   
    33    17    18 1   
    34    17    19 1   
    35    17    38 1   
    36    18    39 1   
    37    19    20 1   
    38    19    21 1   
    39    19    40 1   
    40    20    41 1   
    41    21    22 1   
    42    21    23 1   
    43    21    42 1   
    44    23    24 1   
    45    23    43 1   
    46    23    44 1   
    47    24    45 1   
@<TRIPOS>SUBSTRUCTURE
     1 ZIR         1 TEMP              0 ****  ****    0 ROOT
