@<TRIPOS>MOLECULE
molecule
   45    47     1     0     0
SMALL
bcc


@<TRIPOS>ATOM
      1 N1           0.0000     0.0000     0.0000 nb         1 ZIR      -0.837000
      2 C2           1.3200     0.0000     0.0000 ca         1 ZIR       0.739900
      3 N3           2.0270     0.0000     1.1110 nb         1 ZIR      -0.789000
      4 C4           1.4250     0.0010     2.2960 ca         1 ZIR       0.477800
      5 C5           0.0220     0.0010     2.3490 ca         1 ZIR      -0.211200
      6 C6          -0.6880     0.0010     1.1360 ca         1 ZIR       0.785200
      7 N7          -0.3270     0.0020     3.6580 nc         1 ZIR      -0.589100
      8 C8           0.7470     0.0020     4.3940 cd         1 ZIR       0.426700
      9 N9           1.8550     0.0010     3.6000 na         1 ZIR      -0.253000
     10 C1'          3.2470    -0.0000     4.0540 c3         1 ZIR       0.258800
     11 N10         -2.0720     0.0020     1.1270 nu         1 ZIR      -0.887900
     12 C11         -2.7950     0.0020    -0.1470 c3         1 ZIR       0.271000
     13 C12         -4.2790     0.0030     0.1180 c2         1 ZIR      -0.217200
     14 C13         -5.0430     0.9090    -0.4410 c2         1 ZIR      -0.104400
     15 C14         -6.4940     1.0180    -0.0460 c3         1 ZIR      -0.057400
     16 C15         -4.4720     1.8410    -1.4780 c3         1 ZIR      -0.057400
     17 C2'          3.7740     1.4460     4.1760 c3         1 ZIR       0.093100
     18 O2'          4.5310     1.8030     3.0180 oh         1 ZIR      -0.559800
     19 C3'          4.6810     1.4120     5.4270 c3         1 ZIR       0.085100
     20 O3'          6.0250     1.7460     5.0790 oh         1 ZIR      -0.569800
     21 C4'          4.5940    -0.0530     5.9120 c3         1 ZIR       0.127100
     22 O4'          3.3390    -0.5410     5.3900 os         1 ZIR      -0.399600
     23 C5'          4.5930    -0.1070     7.4410 c3         1 ZIR       0.147400
     24 O5'          4.6290    -1.4700     7.8690 oh         1 ZIR      -0.593800
     25 H2           1.8420    -0.0010    -0.9500 h5         1 ZIR       0.061100
     26 H8           0.7580     0.0020     5.4770 h5         1 ZIR       0.086800
     27 H1'          3.8700    -0.5700     3.3750 h2         1 ZIR       0.114700
     28 HN10        -2.5780    -0.0090     1.9900 hn         1 ZIR       0.464800
     29 H11         -2.5300    -0.8830    -0.7130 h1         1 ZIR       0.058700
     30 H11A        -2.5290     0.8860    -0.7140 h1         1 ZIR       0.058700
     31 H12         -4.6920    -0.6660     0.8630 ha         1 ZIR       0.130000
     32 H14         -6.6270     0.6230     0.9540 hc         1 ZIR       0.045200
     33 H14A        -6.7960     2.0590    -0.0660 hc         1 ZIR       0.045200
     34 H14B        -7.1010     0.4530    -0.7420 hc         1 ZIR       0.045200
     35 H15         -5.2760     2.3900    -1.9520 hc         1 ZIR       0.045200
     36 H15A        -3.9370     1.2670    -2.2240 hc         1 ZIR       0.045200
     37 H15B        -3.7910     2.5370    -1.0020 hc         1 ZIR       0.045200
     38 H2'          2.9520     2.1360     4.3250 h1         1 ZIR       0.056700
     39 HO2'         4.4400     2.7270     2.8550 ho         1 ZIR       0.408000
     40 H3'          4.3010     2.0840     6.1860 h1         1 ZIR       0.045700
     41 HO3'         6.3140     2.4730     5.6050 ho         1 ZIR       0.402000
     42 H4'          5.4170    -0.6300     5.5100 h1         1 ZIR       0.091700
     43 H5'          3.6940     0.3660     7.8190 h1         1 ZIR       0.031700
     44 H5'A         5.4630     0.4140     7.8220 h1         1 ZIR       0.031700
     45 HO5'         4.9100    -1.5100     8.7680 ho         1 ZIR       0.405000
@<TRIPOS>BOND
     1     6     1 ar
     2     1     2 ar
     3     3     2 ar
     4     2    25 1
     5     4     3 ar
     6     5     4 ar
     7     9     4 1
     8     7     5 1
     9     5     6 ar
    10    11     6 1
    11     7     8 2
    12     8     9 1
    13     8    26 1
    14     9    10 1
    15    17    10 1
    16    10    22 1
    17    10    27 1
    18    11    12 1
    19    11    28 1
    20    13    12 1
    21    12    29 1
    22    12    30 1
    23    13    14 2
    24    13    31 1
    25    15    14 1
    26    14    16 1
    27    15    32 1
    28    15    33 1
    29    15    34 1
    30    16    35 1
    31    16    36 1
    32    16    37 1
    33    18    17 1
    34    17    19 1
    35    17    38 1
    36    18    39 1
    37    19    21 1
    38    19    20 1
    39    19    40 1
    40    20    41 1
    41    23    21 1
    42    21    22 1
    43    21    42 1
    44    23    24 1
    45    23    43 1
    46    23    44 1
    47    24    45 1
@<TRIPOS>SUBSTRUCTURE
     1 ZIR         1 TEMP              0 ****  ****    0 ROOT
