@<TRIPOS>MOLECULE
molecule
   49    49     1     0     0
SMALL
bcc


@<TRIPOS>ATOM
      1 O8           0.0000     0.0000     0.0000 o          1 ZJ0      -0.519100
      2 C1           1.2120     0.0000     0.0000 c          1 ZJ0       0.577700
      3 C2           1.9490     0.0000     1.2750 ca         1 ZJ0      -0.109600
      4 C7           1.2530    -0.0000     2.4870 ca         1 ZJ0      -0.150500
      5 C6           1.9500     0.0010     3.6820 ca         1 ZJ0       0.164600
      6 O19          1.2750     0.0010     4.8620 os         1 ZJ0      -0.323900
      7 C21          2.0570     0.0010     6.0570 c3         1 ZJ0       0.128700
      8 C5           3.3380     0.0010     3.6780 ca         1 ZJ0      -0.291000
      9 C4           4.0340    -0.0000     2.4790 ca         1 ZJ0       0.164600
     10 O18          5.3940    -0.0000     2.4820 os         1 ZJ0      -0.323900
     11 C20          6.0380    -0.0010     3.7570 c3         1 ZJ0       0.128700
     12 C3           3.3470    -0.0050     1.2770 ca         1 ZJ0      -0.150500
     13 C9           1.9660    -0.0060    -1.3050 c3         1 ZJ0      -0.178400
     14 C10          0.9700    -0.0130    -2.4680 c3         1 ZJ0      -0.072400
     15 C11          1.7350    -0.0190    -3.7940 c3         1 ZJ0      -0.084400
     16 C12          0.7410    -0.0250    -4.9560 c3         1 ZJ0      -0.080400
     17 C13          1.5050    -0.0310    -6.2820 c3         1 ZJ0      -0.082400
     18 C14          0.5100    -0.0370    -7.4440 c3         1 ZJ0      -0.082400
     19 C15          1.2750    -0.0440    -8.7690 c3         1 ZJ0      -0.081400
     20 C16          0.2810    -0.0500    -9.9320 c3         1 ZJ0      -0.084400
     21 C17          1.0450    -0.0570   -11.2570 c3         1 ZJ0      -0.092100
     22 H1           0.1720     0.0730     2.4900 ha         1 ZJ0       0.157500
     23 H2           1.4000     0.0010     6.9180 h1         1 ZJ0       0.041867
     24 H3           2.6820     0.8860     6.0800 h1         1 ZJ0       0.041867
     25 H4           2.6830    -0.8830     6.0800 h1         1 ZJ0       0.041867
     26 H5           3.8790     0.0010     4.6170 ha         1 ZJ0       0.142000
     27 H6           5.7440    -0.8860     4.3090 h1         1 ZJ0       0.041867
     28 H7           7.1120    -0.0020     3.6180 h1         1 ZJ0       0.041867
     29 H8           5.7460     0.8830     4.3100 h1         1 ZJ0       0.041867
     30 H9           3.8910    -0.0060     0.3400 ha         1 ZJ0       0.157500
     31 H10          2.5880     0.8780    -1.3670 hc         1 ZJ0       0.067700
     32 H11          2.5890    -0.8910    -1.3580 hc         1 ZJ0       0.067700
     33 H12          0.3470     0.8720    -2.4150 hc         1 ZJ0       0.055700
     34 H13          0.3480    -0.8970    -2.4060 hc         1 ZJ0       0.055700
     35 H14          2.3580     0.8650    -3.8560 hc         1 ZJ0       0.039700
     36 H15          2.3580    -0.9040    -3.8470 hc         1 ZJ0       0.039700
     37 H16          0.1180     0.8600    -4.9030 hc         1 ZJ0       0.043700
     38 H17          0.1180    -0.9090    -4.8940 hc         1 ZJ0       0.043700
     39 H18          2.1270     0.8530    -6.3440 hc         1 ZJ0       0.040700
     40 H19          2.1280    -0.9150    -6.3350 hc         1 ZJ0       0.040700
     41 H20         -0.1130     0.8470    -7.3910 hc         1 ZJ0       0.041700
     42 H21         -0.1120    -0.9220    -7.3820 hc         1 ZJ0       0.041700
     43 H22          1.8980    -0.9280    -8.8220 hc         1 ZJ0       0.040700
     44 H23          1.8980     0.8410    -8.8310 hc         1 ZJ0       0.040700
     45 H24         -0.3420     0.8340    -9.8790 hc         1 ZJ0       0.039700
     46 H25         -0.3420    -0.9350    -9.8690 hc         1 ZJ0       0.039700
     47 H26          1.6680    -0.9410   -11.3100 hc         1 ZJ0       0.032367
     48 H27          0.3400    -0.0610   -12.0800 hc         1 ZJ0       0.032367
     49 H28          1.6670     0.8280   -11.3190 hc         1 ZJ0       0.032367
@<TRIPOS>BOND
     1    20    21 1
     2    20    19 1
     3    19    18 1
     4    11    10 1
     5    18    17 1
     6    10     9 1
     7    17    16 1
     8    16    15 1
     9     9     8 ar
    10     9    12 ar
    11     8     5 ar
    12    12     3 ar
    13    14    15 1
    14    14    13 1
    15     5     6 1
    16     5     4 ar
    17     3     4 ar
    18     3     2 1
    19    13     2 1
    20     6     7 1
    21     2     1 2
    22     4    22 1
    23     7    23 1
    24     7    24 1
    25     7    25 1
    26     8    26 1
    27    11    27 1
    28    11    28 1
    29    11    29 1
    30    12    30 1
    31    13    31 1
    32    13    32 1
    33    14    33 1
    34    14    34 1
    35    15    35 1
    36    15    36 1
    37    16    37 1
    38    16    38 1
    39    17    39 1
    40    17    40 1
    41    18    41 1
    42    18    42 1
    43    19    43 1
    44    19    44 1
    45    20    45 1
    46    20    46 1
    47    21    47 1
    48    21    48 1
    49    21    49 1
@<TRIPOS>SUBSTRUCTURE
     1 ZJ0         1 TEMP              0 ****  ****    0 ROOT
