@<TRIPOS>MOLECULE
ZJ0
   49    49     1     0     0
SMALL
bcc


@<TRIPOS>ATOM
      1 O8         -0.0570    0.8770    0.1110 o         1 ZJ0     -0.525100
      2 C1          1.1370    0.5620    0.0550 c         1 ZJ0      0.576700
      3 C2          1.9320    0.3320    1.2880 ca        1 ZJ0     -0.112600
      4 C7          1.2520    0.0650    2.4780 ca        1 ZJ0     -0.149500
      5 C6          1.9860   -0.1630    3.6550 ca        1 ZJ0      0.146100
      6 O19         1.2160   -0.4260    4.7710 os        1 ZJ0     -0.323400
      7 C21         1.9190   -0.6400    5.9890 c3        1 ZJ0      0.113200
      8 C5          3.3850   -0.1190    3.6590 ca        1 ZJ0     -0.255000
      9 C4          4.0420    0.1600    2.4540 ca        1 ZJ0      0.146100
     10 O18         5.4150    0.2350    2.3210 os        1 ZJ0     -0.323400
     11 C20         6.1780    0.0310    3.5040 c3        1 ZJ0      0.113200
     12 C3          3.3280    0.3830    1.2650 ca        1 ZJ0     -0.149500
     13 C9          1.8620    0.3850   -1.2500 c3        1 ZJ0     -0.176400
     14 C10         0.9170    0.3260   -2.4300 c3        1 ZJ0     -0.076400
     15 C11         1.6790    0.1920   -3.7310 c3        1 ZJ0     -0.078400
     16 C12         0.7340    0.1250   -4.9120 c3        1 ZJ0     -0.078400
     17 C13         1.4930   -0.0070   -6.2150 c3        1 ZJ0     -0.078400
     18 C14         0.5480   -0.0750   -7.3950 c3        1 ZJ0     -0.079400
     19 C15         1.3060   -0.2060   -8.6990 c3        1 ZJ0     -0.079400
     20 C16         0.3630   -0.2750   -9.8810 c3        1 ZJ0     -0.080400
     21 C17         1.1130   -0.4060  -11.1810 c3        1 ZJ0     -0.092100
     22 H1          0.1520    0.0400    2.5000 ha        1 ZJ0      0.162500
     23 H2          2.5130    0.2640    6.2680 h1        1 ZJ0      0.045700
     24 H3          1.1000   -0.8190    6.7320 h1        1 ZJ0      0.045700
     25 H4          2.5820   -1.5360    5.9110 h1        1 ZJ0      0.045700
     26 H5          3.9520   -0.2960    4.5820 ha        1 ZJ0      0.145000
     27 H6          7.2350    0.1480    3.1540 h1        1 ZJ0      0.045700
     28 H7          5.9300    0.8030    4.2720 h1        1 ZJ0      0.045700
     29 H8          6.0100   -0.9960    3.9100 h1        1 ZJ0      0.045700
     30 H9          3.8840    0.6000    0.3420 ha        1 ZJ0      0.162500
     31 H10         2.5720    1.2470   -1.3740 hc        1 ZJ0      0.068700
     32 H11         2.4750   -0.5550   -1.2020 hc        1 ZJ0      0.068700
     33 H12         0.2170   -0.5420   -2.3050 hc        1 ZJ0      0.055700
     34 H13         0.2840    1.2530   -2.4480 hc        1 ZJ0      0.055700
     35 H14         2.3720    1.0660   -3.8530 hc        1 ZJ0      0.038200
     36 H15         2.3130   -0.7330   -3.7040 hc        1 ZJ0      0.038200
     37 H16         0.0980    1.0490   -4.9370 hc        1 ZJ0      0.042200
     38 H17         0.0410   -0.7490   -4.7890 hc        1 ZJ0      0.042200
     39 H18         2.1850    0.8680   -6.3370 hc        1 ZJ0      0.038700
     40 H19         2.1290   -0.9310   -6.1880 hc        1 ZJ0      0.038700
     41 H20        -0.0880    0.8490   -7.4220 hc        1 ZJ0      0.040200
     42 H21        -0.1440   -0.9490   -7.2730 hc        1 ZJ0      0.040200
     43 H22         1.9420   -1.1300   -8.6730 hc        1 ZJ0      0.038700
     44 H23         1.9990    0.6680   -8.8210 hc        1 ZJ0      0.038700
     45 H24        -0.2740    0.6490   -9.9040 hc        1 ZJ0      0.038700
     46 H25        -0.3300   -1.1480   -9.7550 hc        1 ZJ0      0.038700
     47 H26         1.7910    0.4690  -11.3350 hc        1 ZJ0      0.032700
     48 H27         1.7340   -1.3340  -11.1860 hc        1 ZJ0      0.032700
     49 H28         0.3990   -0.4540  -12.0380 hc        1 ZJ0      0.032700
@<TRIPOS>BOND
     1    1    2 2   
     2    2    3 1   
     3    2   13 1   
     4    3    4 ar  
     5    3   12 ar  
     6    4    5 ar  
     7    4   22 1   
     8    5    6 1   
     9    5    8 ar  
    10    6    7 1   
    11    7   23 1   
    12    7   24 1   
    13    7   25 1   
    14    8    9 ar  
    15    8   26 1   
    16    9   10 1   
    17    9   12 ar  
    18   10   11 1   
    19   11   27 1   
    20   11   28 1   
    21   11   29 1   
    22   12   30 1   
    23   13   14 1   
    24   13   31 1   
    25   13   32 1   
    26   14   15 1   
    27   14   33 1   
    28   14   34 1   
    29   15   16 1   
    30   15   35 1   
    31   15   36 1   
    32   16   17 1   
    33   16   37 1   
    34   16   38 1   
    35   17   18 1   
    36   17   39 1   
    37   17   40 1   
    38   18   19 1   
    39   18   41 1   
    40   18   42 1   
    41   19   20 1   
    42   19   43 1   
    43   19   44 1   
    44   20   21 1   
    45   20   45 1   
    46   20   46 1   
    47   21   47 1   
    48   21   48 1   
    49   21   49 1   
@<TRIPOS>SUBSTRUCTURE
     1 ZJ0         1 TEMP              0 ****  ****    0 ROOT
