@<TRIPOS>MOLECULE
molecule
   40    43     1     0     0
SMALL
bcc


@<TRIPOS>ATOM
      1 C            0.0000     0.0000     0.0000 c3         1 ZJB       0.142400
      2 N            3.5360     2.9820    -0.1560 na         1 ZJB      -0.114000
      3 O            2.0190     1.1950    -0.6320 os         1 ZJB      -0.409600
      4 C1           1.5290     0.0000     0.0000 c3         1 ZJB       0.135100
      5 O1           4.1170     1.0340     2.2790 oh         1 ZJB      -0.541800
      6 C2           3.2390     1.5620     0.0490 c3         1 ZJB       0.222800
      7 N2           3.8520     7.4290    -0.8730 nc         1 ZJB      -0.141400
      8 O2           2.8500    -1.1610     1.6940 oh         1 ZJB      -0.526800
      9 C3           2.9200     1.2800     1.5390 c3         1 ZJB       0.060100
     10 N3           5.1960     7.1290    -0.6140 na         1 ZJB      -0.016800
     11 O3          -0.4760    -0.1010    -1.3440 oh         1 ZJB      -0.596800
     12 C4           2.0540     0.0000     1.4490 c3         1 ZJB       0.061100
     13 N4           6.0450     3.1920     0.1990 nb         1 ZJB      -0.734000
     14 C5           2.5900     3.9460    -0.4680 cc         1 ZJB      -0.051200
     15 N5           6.8120     5.4050    -0.0680 nb         1 ZJB      -0.759000
     16 C6           3.1850     5.1480    -0.5830 cd         1 ZJB      -0.319000
     17 C7           2.8720     6.5600    -0.8740 cd         1 ZJB       0.191700
     18 C8           5.5860     5.8440    -0.3310 ca         1 ZJB       0.583800
     19 C9           4.5950     4.8800    -0.3190 ca         1 ZJB      -0.393400
     20 C10          4.7790     3.5350    -0.0590 ca         1 ZJB       0.559800
     21 C11          6.9920     4.1130     0.1850 ca         1 ZJB       0.742900
     22 H           -0.3610     0.9200     0.4430 h1         1 ZJB       0.032700
     23 HA          -0.3610    -0.8440     0.5750 h1         1 ZJB       0.032700
     24 H1           1.9030    -0.8710    -0.5250 h1         1 ZJB       0.102700
     25 HN1          1.3320     7.8210    -0.6940 hn         1 ZJB       0.472467
     26 HN1A         1.1300     6.1700    -0.7090 hn         1 ZJB       0.472467
     27 HO1          3.9920     1.2970     3.1760 ho         1 ZJB       0.414000
     28 H2           4.0610     0.9420    -0.2860 h2         1 ZJB       0.126700
     29 HO2          2.4400    -1.6890     2.3590 ho         1 ZJB       0.415000
     30 H3           2.3480     2.1820     1.7180 h1         1 ZJB       0.051700
     31 HO3         -1.3480    -0.4580    -1.3420 ho         1 ZJB       0.413000
     32 H4           1.4560     0.6170     2.1090 h1         1 ZJB       0.086700
     33 H5           1.5320     3.7590    -0.6040 h4         1 ZJB       0.183000
     34 H11          7.8110     3.5690    -0.2710 h5         1 ZJB       0.095100
     35 H12          5.7080     9.1430    -0.8580 h1         1 ZJB       0.076033
     36 H12A         6.6920     8.2580     0.3160 h1         1 ZJB       0.076033
     37 H12B         6.9270     7.9890    -1.4160 h1         1 ZJB       0.076033
     38 N1           1.5670     6.9580    -1.1440 nz         1 ZJB      -0.758300
     39 H13          1.3490     6.9100    -2.1200 hn         1 ZJB       0.472467
     40 C12          6.1960     8.1990    -0.6450 c3         1 ZJB       0.063600
@<TRIPOS>BOND
     1    11     1 1
     2     1     4 1
     3     1    22 1
     4     1    23 1
     5     6     2 1
     6    14     2 1
     7     2    20 1
     8     4     3 1
     9     3     6 1
    10    12     4 1
    11     4    24 1
    12    38    17 1
    13    38    25 1
    14    38    26 1
    15     9     5 1
    16     5    27 1
    17     9     6 1
    18     6    28 1
    19    17     7 2
    20     7    10 1
    21    12     8 1
    22     8    29 1
    23    12     9 1
    24     9    30 1
    25    18    10 1
    26    10    40 1
    27    11    31 1
    28    12    32 1
    29    20    13 ar
    30    13    21 ar
    31    14    16 2
    32    14    33 1
    33    18    15 ar
    34    21    15 ar
    35    16    17 1
    36    16    19 1
    37    19    18 ar
    38    20    19 ar
    39    21    34 1
    40    40    35 1
    41    40    36 1
    42    40    37 1
    43    39    38 1
@<TRIPOS>SUBSTRUCTURE
     1 ZJB         1 TEMP              0 ****  ****    0 ROOT
