@<TRIPOS>MOLECULE
molecule
   40    42     1     0     0
SMALL
bcc


@<TRIPOS>ATOM
      1 OAA          0.0000     0.0000     0.0000 o          1 ZK1      -0.632500
      2 OAB          1.3890     0.0040    -2.3360 o          1 ZK1      -0.527500
      3 OAC          5.0750    -2.4420    -1.9270 o          1 ZK1      -0.881833
      4 OAD          5.3510    -1.6990    -4.3230 o          1 ZK1      -0.881833
      5 OAE          3.0090    -2.4250    -3.3760 o          1 ZK1      -0.881833
      6 FAF          5.1580    -0.0040     4.7720 f          1 ZK1      -0.239967
      7 FAG          6.8830     1.1420     3.8060 f          1 ZK1      -0.239967
      8 FAH          6.8870    -1.1420     3.8050 f          1 ZK1      -0.239967
      9 CAI          5.3840     0.0000     0.0000 ca         1 ZK1      -0.076000
     10 CAJ          3.9660    -0.0050     2.3910 ca         1 ZK1      -0.117000
     11 CAK          9.4680     1.4620     0.8050 c3         1 ZK1       0.137900
     12 CAL          9.6190    -0.9230     0.9570 c3         1 ZK1       0.137900
     13 CAM          7.9460     1.3690     0.6650 c3         1 ZK1       0.116300
     14 CAN          8.1000    -1.0410     0.8180 c3         1 ZK1       0.116300
     15 CAO          4.0860     0.0100    -2.4930 c3         1 ZK1      -0.061200
     16 NAP          1.8880    -0.0240     1.1770 ns         1 ZK1      -0.454100
     17 OAQ         10.0620     0.2660     0.2970 os         1 ZK1      -0.432600
     18 CAR          6.0570     0.0000     1.2110 ca         1 ZK1       0.100600
     19 CAS          5.3440    -0.0020     2.4060 ca         1 ZK1      -0.200300
     20 CAT          1.2150    -0.0070     0.0080 c          1 ZK1       0.629500
     21 CAU          1.9770     0.0010    -1.2740 c          1 ZK1       0.623500
     22 CAV          3.2820    -0.0110     1.1790 ca         1 ZK1      -0.026400
     23 CAW          3.9940    -0.0020    -0.0210 ca         1 ZK1       0.111600
     24 NAX          7.4670     0.1680     1.3660 nh         1 ZK1      -0.603000
     25 NAY          3.3240     0.0030    -1.2420 n          1 ZK1      -0.274000
     26 PBA          4.4050    -1.7060    -3.0210 p5         1 ZK1       0.982700
     27 HAI          5.8230     0.5230    -0.8410 ha         1 ZK1       0.159000
     28 HAJ          3.3660    -0.0260     3.2930 ha         1 ZK1       0.126000
     29 HAK          9.8300     2.3130     0.2410 h1         1 ZK1       0.039450
     30 HAKA         9.7270     1.5780     1.8510 h1         1 ZK1       0.039450
     31 HAL          9.8820    -0.8720     2.0070 h1         1 ZK1       0.039450
     32 HALA        10.0910    -1.7860     0.5020 h1         1 ZK1       0.039450
     33 HAM          7.4890     2.2480     1.1030 h1         1 ZK1       0.066700
     34 HAMA         7.6840     1.3030    -0.3840 h1         1 ZK1       0.066700
     35 HAN          7.8400    -1.1410    -0.2290 h1         1 ZK1       0.066700
     36 HANA         7.7540    -1.9090     1.3670 h1         1 ZK1       0.066700
     37 HAO          3.5170     0.5240    -3.2590 h1         1 ZK1       0.047700
     38 HAOA         5.0280     0.5210    -2.3390 h1         1 ZK1       0.047700
     39 HNAP         1.3860    -0.0470     2.0420 hn         1 ZK1       0.312500
     40 CAZ          6.0820    -0.0020     3.7210 c3         1 ZK1       0.691200
@<TRIPOS>BOND
     1    20     1 2
     2    21     2 2
     3     3    26 1
     4     4    26 1
     5    26     5 1
     6     6    40 1
     7    40     7 1
     8    40     8 1
     9    18     9 ar
    10     9    23 ar
    11     9    27 1
    12    19    10 ar
    13    10    22 ar
    14    10    28 1
    15    11    13 1
    16    11    17 1
    17    11    29 1
    18    11    30 1
    19    17    12 1
    20    12    14 1
    21    12    31 1
    22    12    32 1
    23    13    24 1
    24    13    33 1
    25    13    34 1
    26    24    14 1
    27    14    35 1
    28    14    36 1
    29    26    15 1
    30    25    15 1
    31    15    37 1
    32    15    38 1
    33    22    16 1
    34    16    20 1
    35    16    39 1
    36    24    18 1
    37    19    18 ar
    38    40    19 1
    39    20    21 1
    40    25    21 1
    41    22    23 ar
    42    23    25 1
@<TRIPOS>SUBSTRUCTURE
     1 ZK1         1 TEMP              0 ****  ****    0 ROOT
