@<TRIPOS>MOLECULE
molecule
   56    59     1     0     0
SMALL
bcc


@<TRIPOS>ATOM
      1 C2           0.0000     0.0000     0.0000 c3         1 ZK5      -0.176400
      2 C3           1.5160     0.0000     0.0000 c          1 ZK5       0.570300
      3 C4           2.1690     0.0000     1.3120 ce         1 ZK5      -0.252200
      4 C5           1.5040     0.4250     2.3860 c2         1 ZK5      -0.041400
      5 C6           2.2240     0.3870     3.7230 c3         1 ZK5      -0.050200
      6 C7           2.0600     1.7460     4.4060 c3         1 ZK5      -0.077400
      7 C1          -0.4580     1.1110     0.9440 c3         1 ZK5      -0.069400
      8 C8           0.5680     2.0730     4.5190 c3         1 ZK5      -0.085700
      9 C9          -0.0150     2.2480     3.1110 c3         1 ZK5       0.201300
     10 C10          0.1040     0.9190     2.3540 c3         1 ZK5      -0.045800
     11 C11         -1.4810     2.6700     3.1520 c3         1 ZK5       0.125100
     12 C12         -1.6850     3.9310     4.0060 c3         1 ZK5      -0.080400
     13 C13         -1.1530     3.6230     5.3910 c3         1 ZK5      -0.045000
     14 C14          0.3770     3.4000     5.2540 c3         1 ZK5      -0.067700
     15 C15          0.8380     3.4180     6.7170 c3         1 ZK5      -0.070400
     16 C16          0.0110     4.5820     7.3270 c3         1 ZK5      -0.104400
     17 C17         -1.2560     4.7370     6.4270 c3         1 ZK5       0.064800
     18 C18         -1.8140     2.3540     5.9290 c3         1 ZK5      -0.099100
     19 C19         -0.7650    -0.1150     3.0730 c3         1 ZK5      -0.074100
     20 C20         -2.5050     4.5830     7.2530 c          1 ZK5       0.543100
     21 C21         -3.7950     5.2090     6.7910 c3         1 ZK5       0.046400
     22 F9           0.7200     3.2250     2.4320 f          1 ZK5      -0.232300
     23 O1           2.1550     0.0010    -1.0320 o          1 ZK5      -0.522100
     24 O2          -2.2560     1.6040     3.7020 oh         1 ZK5      -0.599800
     25 O3          -1.2460     6.0070     5.7730 oh         1 ZK5      -0.594800
     26 O4          -2.4750     3.9580     8.2850 o          1 ZK5      -0.485100
     27 O5          -4.8280     4.9250     7.7370 oh         1 ZK5      -0.586800
     28 H2C1        -0.3670    -0.9560     0.3540 hc         1 ZK5       0.070200
     29 H2C2        -0.3670     0.1940    -1.0010 hc         1 ZK5       0.070200
     30 H4           3.1910    -0.3460     1.4090 ha         1 ZK5       0.152000
     31 H6C1         1.7930    -0.3870     4.3460 hc         1 ZK5       0.057200
     32 H6C2         3.2770     0.1870     3.5620 hc         1 ZK5       0.057200
     33 H7C1         2.4970     1.7070     5.3970 hc         1 ZK5       0.056700
     34 H7C2         2.5540     2.5090     3.8170 hc         1 ZK5       0.056700
     35 H1C1        -0.1200     2.0640     0.5560 hc         1 ZK5       0.054200
     36 H1C2        -1.5410     1.1070     0.9920 hc         1 ZK5       0.054200
     37 H8           0.0500     1.2780     5.0420 hc         1 ZK5       0.090700
     38 H11         -1.8160     2.8720     2.1420 h1         1 ZK5       0.047700
     39 H121        -1.1350     4.7590     3.5760 hc         1 ZK5       0.062200
     40 H122        -2.7400     4.1700     4.0620 hc         1 ZK5       0.062200
     41 H14          0.8310     4.2130     4.7010 hc         1 ZK5       0.078700
     42 H151         0.5960     2.4810     7.2040 hc         1 ZK5       0.052700
     43 H152         1.8990     3.6290     6.7800 hc         1 ZK5       0.052700
     44 H161         0.5910     5.4970     7.3130 hc         1 ZK5       0.063700
     45 H162        -0.2830     4.3360     8.3410 hc         1 ZK5       0.063700
     46 H181        -1.3690     1.4860     5.4570 hc         1 ZK5       0.053700
     47 H182        -1.6660     2.2960     7.0010 hc         1 ZK5       0.053700
     48 H183        -2.8750     2.3790     5.7120 hc         1 ZK5       0.053700
     49 H191        -0.7550     0.0830     4.1380 hc         1 ZK5       0.046033
     50 H192        -1.7820    -0.0510     2.7040 hc         1 ZK5       0.046033
     51 H193        -0.3740    -1.1080     2.8860 hc         1 ZK5       0.046033
     52 H211        -4.0690     4.8020     5.8250 h1         1 ZK5       0.049700
     53 H212        -3.6670     6.2810     6.7080 h1         1 ZK5       0.049700
     54 H2          -3.1290     1.6340     3.3460 ho         1 ZK5       0.400000
     55 H3          -1.0950     6.6870     6.4090 ho         1 ZK5       0.406000
     56 H5          -5.5070     5.5750     7.6650 ho         1 ZK5       0.404000
@<TRIPOS>BOND
     1     1     2 1
     2     1     7 1
     3     1    28 1
     4     1    29 1
     5     2     3 1
     6     2    23 2
     7     3     4 2
     8     3    30 1
     9     4     5 1
    10     4    10 1
    11     5     6 1
    12     5    31 1
    13     5    32 1
    14     6     8 1
    15     6    33 1
    16     6    34 1
    17     7    10 1
    18     7    35 1
    19     7    36 1
    20     8     9 1
    21     8    14 1
    22     8    37 1
    23     9    10 1
    24     9    11 1
    25     9    22 1
    26    10    19 1
    27    11    12 1
    28    11    24 1
    29    11    38 1
    30    12    13 1
    31    12    39 1
    32    12    40 1
    33    13    14 1
    34    13    17 1
    35    13    18 1
    36    14    15 1
    37    14    41 1
    38    15    16 1
    39    15    42 1
    40    15    43 1
    41    16    17 1
    42    16    44 1
    43    16    45 1
    44    17    20 1
    45    17    25 1
    46    18    46 1
    47    18    47 1
    48    18    48 1
    49    19    49 1
    50    19    50 1
    51    19    51 1
    52    20    21 1
    53    20    26 2
    54    21    27 1
    55    21    52 1
    56    21    53 1
    57    24    54 1
    58    25    55 1
    59    27    56 1
@<TRIPOS>SUBSTRUCTURE
     1 ZK5         1 TEMP              0 ****  ****    0 ROOT
