@<TRIPOS>MOLECULE
ZK5
   56    59     1     0     0
SMALL
bcc


@<TRIPOS>ATOM
      1 C2          0.1750    0.0830   -0.1410 c3        1 ZK5     -0.179400
      2 C3          1.6770    0.0550   -0.1260 c         1 ZK5      0.570300
      3 C4          2.2930    0.1750    1.2020 ce        1 ZK5     -0.256200
      4 C5          1.6050    0.5030    2.3090 c2        1 ZK5     -0.032400
      5 C6          2.2670    0.4800    3.6450 c3        1 ZK5     -0.053200
      6 C7          1.9740    1.7220    4.4570 c3        1 ZK5     -0.074400
      7 C1         -0.3600    1.0790    0.8620 c3        1 ZK5     -0.076400
      8 C8          0.4790    1.9620    4.5670 c3        1 ZK5     -0.068700
      9 C9         -0.1430    2.1030    3.1460 c3        1 ZK5      0.201300
     10 C10         0.1260    0.8090    2.2930 c3        1 ZK5     -0.024800
     11 C11        -1.6690    2.4550    3.2420 c3        1 ZK5      0.127100
     12 C12        -1.9400    3.6520    4.1610 c3        1 ZK5     -0.103400
     13 C13        -1.3170    3.4720    5.5340 c3        1 ZK5     -0.024000
     14 C14         0.1970    3.2370    5.3330 c3        1 ZK5     -0.070700
     15 C15         0.7910    3.4220    6.7220 c3        1 ZK5     -0.067400
     16 C16        -0.0510    4.5370    7.3500 c3        1 ZK5     -0.102400
     17 C17        -1.2910    4.7460    6.4430 c3        1 ZK5      0.056800
     18 C18        -2.0070    2.3630    6.3090 c3        1 ZK5     -0.112100
     19 C19        -0.5950   -0.4220    2.8380 c3        1 ZK5     -0.078100
     20 C20        -2.5720    4.9090    7.2480 c         1 ZK5      0.515100
     21 C21        -3.6490    5.7530    6.6090 c3        1 ZK5      0.038400
     22 F9          0.4570    3.1880    2.4940 f         1 ZK5     -0.237300
     23 O1          2.3450   -0.0950   -1.1560 o         1 ZK5     -0.534100
     24 O2         -2.3870    1.3000    3.6390 oh        1 ZK5     -0.599800
     25 O3         -1.1370    5.8730    5.5900 oh        1 ZK5     -0.586800
     26 O4         -2.7360    4.4080    8.3640 o         1 ZK5     -0.525100
     27 O5         -4.9290    5.4980    7.1410 oh        1 ZK5     -0.587800
     28 H2C1       -0.1920    0.3420   -1.1690 hc        1 ZK5      0.072200
     29 H2C2       -0.1920   -0.9500    0.1020 hc        1 ZK5      0.072200
     30 H4          3.3750   -0.0380    1.2410 ha        1 ZK5      0.148000
     31 H6C1        3.3780    0.3670    3.5310 hc        1 ZK5      0.057200
     32 H6C2        1.8910   -0.4270    4.1960 hc        1 ZK5      0.057200
     33 H7C1        2.4080    1.6090    5.4850 hc        1 ZK5      0.055200
     34 H7C2        2.4600    2.6120    3.9770 hc        1 ZK5      0.055200
     35 H1C1       -1.4820    1.0490    0.8500 hc        1 ZK5      0.059200
     36 H1C2       -0.0450    2.1110    0.5490 hc        1 ZK5      0.059200
     37 H8         -0.0040    1.0870    5.0760 hc        1 ZK5      0.076700
     38 H11        -2.0080    2.7350    2.2000 h1        1 ZK5      0.049700
     39 H121       -1.5100    4.5710    3.6770 hc        1 ZK5      0.067700
     40 H122       -3.0470    3.7980    4.2550 hc        1 ZK5      0.067700
     41 H14         0.5790    4.0950    4.6990 hc        1 ZK5      0.075700
     42 H151        1.8690    3.7090    6.6670 hc        1 ZK5      0.051200
     43 H152        0.7140    2.4810    7.3210 hc        1 ZK5      0.051200
     44 H161        0.5370    5.4850    7.4170 hc        1 ZK5      0.062700
     45 H162       -0.3760    4.2500    8.3810 hc        1 ZK5      0.062700
     46 H181       -1.8380    1.3680    5.8310 hc        1 ZK5      0.052367
     47 H182       -3.1090    2.5520    6.3450 hc        1 ZK5      0.052367
     48 H183       -1.6250    2.3210    7.3590 hc        1 ZK5      0.052367
     49 H191       -1.6650   -0.4280    2.5160 hc        1 ZK5      0.047367
     50 H192       -0.1080   -1.3480    2.4450 hc        1 ZK5      0.047367
     51 H193       -0.5660   -0.4490    3.9520 hc        1 ZK5      0.047367
     52 H211       -3.3770    6.8370    6.7450 h1        1 ZK5      0.075200
     53 H212       -3.7270    5.5280    5.5100 h1        1 ZK5      0.075200
     54 H2         -3.2340    1.5980    3.9950 ho        1 ZK5      0.409000
     55 H3         -0.8120    6.6020    6.1330 ho        1 ZK5      0.407000
     56 H5         -4.8390    5.4190    8.1020 ho        1 ZK5      0.418000
@<TRIPOS>BOND
     1    1    2 1   
     2    1    7 1   
     3    1   28 1   
     4    1   29 1   
     5    2    3 1   
     6    2   23 2   
     7    3    4 2   
     8    3   30 1   
     9    4    5 1   
    10    4   10 1   
    11    5    6 1   
    12    5   31 1   
    13    5   32 1   
    14    6    8 1   
    15    6   33 1   
    16    6   34 1   
    17    7   10 1   
    18    7   35 1   
    19    7   36 1   
    20    8    9 1   
    21    8   14 1   
    22    8   37 1   
    23    9   10 1   
    24    9   11 1   
    25    9   22 1   
    26   10   19 1   
    27   11   12 1   
    28   11   24 1   
    29   11   38 1   
    30   12   13 1   
    31   12   39 1   
    32   12   40 1   
    33   13   14 1   
    34   13   17 1   
    35   13   18 1   
    36   14   15 1   
    37   14   41 1   
    38   15   16 1   
    39   15   42 1   
    40   15   43 1   
    41   16   17 1   
    42   16   44 1   
    43   16   45 1   
    44   17   20 1   
    45   17   25 1   
    46   18   46 1   
    47   18   47 1   
    48   18   48 1   
    49   19   49 1   
    50   19   50 1   
    51   19   51 1   
    52   20   21 1   
    53   20   26 2   
    54   21   27 1   
    55   21   52 1   
    56   21   53 1   
    57   24   54 1   
    58   25   55 1   
    59   27   56 1   
@<TRIPOS>SUBSTRUCTURE
     1 ZK5         1 TEMP              0 ****  ****    0 ROOT
