@<TRIPOS>MOLECULE
molecule
   49    51     1     0     0
SMALL
bcc


@<TRIPOS>ATOM
      1 C1           0.0000     0.0000     0.0000 ca         1 ZK9      -0.085000
      2 C2           1.3950     0.0000     0.0000 ca         1 ZK9      -0.237900
      3 C3           2.0880     0.0000     1.2090 ca         1 ZK9      -0.078000
      4 C4           1.3880    -0.0120     2.4040 ca         1 ZK9       0.150100
      5 C5          -0.0010    -0.0120     2.3960 ca         1 ZK9      -0.024000
      6 C6          -0.6890    -0.0050     1.1960 ca         1 ZK9      -0.062000
      7 O7           2.0590    -0.0180     3.5850 os         1 ZK9      -0.284400
      8 C8           1.1360     0.1680     4.5630 ca         1 ZK9       0.490600
      9 N9           0.5360     1.3410     4.6820 nb         1 ZK9      -0.721000
     10 C10         -0.3710     1.5650     5.6210 ca         1 ZK9       0.577600
     11 C11          0.8340    -0.8750     5.4300 ca         1 ZK9       0.058600
     12 C12         -0.1150    -0.6780     6.4230 ca         1 ZK9      -0.095300
     13 C13         -0.7240     0.5650     6.5190 ca         1 ZK9       0.080600
     14 O14         -0.9610     2.7840     5.7060 os         1 ZK9      -0.283400
     15 C15          0.0090     3.6660     6.0660 ca         1 ZK9       0.110100
     16 C16         -0.3240     4.9740     6.3870 ca         1 ZK9      -0.079000
     17 C17          0.6630     5.8680     6.7510 ca         1 ZK9      -0.072000
     18 C18          1.9840     5.4600     6.7960 ca         1 ZK9      -0.109000
     19 C19          2.3190     4.1570     6.4760 ca         1 ZK9      -0.167300
     20 C20          1.3340     3.2570     6.1170 ca         1 ZK9      -0.189000
     21 C21          3.7590     3.7170     6.5260 c3         1 ZK9       0.163100
     22 N22          4.0700     3.2070     7.8680 nz         1 ZK9      -0.813600
     23 C23          2.1370     0.0060    -1.2810 ce         1 ZK9       0.494800
     24 N24          1.4720     0.0110    -2.4350 nz         1 ZK9      -0.784600
     25 N25          3.4680     0.0060    -1.2790 nv         1 ZK9      -0.348100
     26 F26          1.4510    -2.0710     5.3030 f          1 ZK9      -0.085900
     27 C27         -0.4720    -1.7860     7.3790 c3         1 ZK9      -0.057800
     28 F28         -1.6490     0.8010     7.4740 f          1 ZK9      -0.062900
     29 H29         -0.5420     0.0020    -0.9380 ha         1 ZK9       0.141000
     30 H30          3.1720     0.0000     1.2150 ha         1 ZK9       0.160000
     31 H31         -0.5460    -0.0180     3.3320 ha         1 ZK9       0.201000
     32 H32         -1.7730    -0.0060     1.1950 ha         1 ZK9       0.206000
     33 H33         -1.3590     5.2940     6.3510 ha         1 ZK9       0.184000
     34 H34          0.4030     6.8890     7.0020 ha         1 ZK9       0.183000
     35 H35          2.7570     6.1630     7.0790 ha         1 ZK9       0.154000
     36 H36          1.5980     2.2370     5.8660 ha         1 ZK9       0.145000
     37 H37          3.9230     2.9340     5.7960 hx         1 ZK9       0.109700
     38 H38          4.4020     4.5590     6.3020 hx         1 ZK9       0.109700
     39 H39          4.8640     3.6950     8.2340 hn         1 ZK9       0.460800
     40 H45          4.2750     2.2290     7.8140 hn         1 ZK9       0.460800
     41 H46          3.2840     3.3510     8.4700 hn         1 ZK9       0.460800
     42 H40          0.9040     0.8330    -2.4900 hn         1 ZK9       0.514467
     43 H48          0.8900    -0.8010    -2.4880 hn         1 ZK9       0.514467
     44 H41          3.9700     0.0100    -2.1450 hn         1 ZK9       0.366200
     45 H47          3.9680     0.0020    -0.4120 hn         1 ZK9       0.366200
     46 H42          0.0620    -2.6870     7.1030 hc         1 ZK9       0.087367
     47 H43         -0.1960    -1.4970     8.3860 hc         1 ZK9       0.087367
     48 H44         -1.5390    -1.9700     7.3360 hc         1 ZK9       0.087367
     49 H243         2.1230     0.0040    -3.1950 hn         1 ZK9       0.514467
@<TRIPOS>BOND
     1     1     2 ar
     2     1     6 ar
     3     1    29 1
     4     2     3 ar
     5     2    23 1
     6     3     4 ar
     7     3    30 1
     8     4     5 ar
     9     4     7 1
    10     5     6 ar
    11     5    31 1
    12     6    32 1
    13     7     8 1
    14     8     9 ar
    15     8    11 ar
    16     9    10 ar
    17    10    13 ar
    18    10    14 1
    19    11    12 ar
    20    11    26 1
    21    12    13 ar
    22    12    27 1
    23    13    28 1
    24    14    15 1
    25    15    16 ar
    26    15    20 ar
    27    16    17 ar
    28    16    33 1
    29    17    18 ar
    30    17    34 1
    31    18    19 ar
    32    18    35 1
    33    19    20 ar
    34    19    21 1
    35    20    36 1
    36    21    22 1
    37    21    37 1
    38    21    38 1
    39    22    39 1
    40    22    40 1
    41    22    41 1
    42    23    24 1
    43    23    25 2
    44    24    42 1
    45    24    43 1
    46    25    44 1
    47    25    45 1
    48    27    46 1
    49    27    47 1
    50    27    48 1
    51    49    24 1
@<TRIPOS>SUBSTRUCTURE
     1 ZK9         1 TEMP              0 ****  ****    0 ROOT
