@<TRIPOS>MOLECULE
ZKW
   26    27     1     0     0
SMALL
bcc


@<TRIPOS>ATOM
      1 O3         -0.1360   -0.0200   -0.1760 o         1 ZKW     -0.850300
      2 C11         1.0850    0.3290   -0.0750 c         1 ZKW      0.932200
      3 O2          1.5600    0.8060    0.9920 o         1 ZKW     -0.850300
      4 C7          2.0030    0.1560   -1.2550 cc        1 ZKW     -0.151900
      5 C8          3.4020    0.1270   -1.2730 cd        1 ZKW     -0.280300
      6 C9          3.7800   -0.0720   -2.6640 cd        1 ZKW      0.294800
      7 C10         5.2030   -0.1560   -3.1800 c         1 ZKW      0.837100
      8 O1          5.7140    0.8750   -3.7030 o         1 ZKW     -0.845300
      9 O           5.8240   -1.2480   -3.0450 o         1 ZKW     -0.845300
     10 N1          2.6660   -0.1570   -3.4310 nc        1 ZKW     -0.551800
     11 N           1.6030   -0.0010   -2.6030 na        1 ZKW      0.053400
     12 C6          0.2400   -0.0840   -3.0610 c3        1 ZKW      0.097600
     13 C2         -0.2730   -1.4880   -3.2720 ca        1 ZKW     -0.051300
     14 C1         -0.3850   -2.3180   -2.1440 ca        1 ZKW     -0.079000
     15 C3         -0.6800   -1.9890   -4.5140 ca        1 ZKW      0.033400
     16 CL1        -0.6040   -1.0510   -5.9390 cl        1 ZKW     -0.118400
     17 C4         -1.1810   -3.2930   -4.6390 ca        1 ZKW     -0.151000
     18 C5         -1.2750   -4.0930   -3.5030 ca        1 ZKW      0.012400
     19 CL         -1.8920   -5.6840   -3.6490 cl        1 ZKW     -0.157400
     20 C          -0.8780   -3.6130   -2.2510 ca        1 ZKW     -0.139000
     21 H8          4.0710    0.2420   -0.4300 ha        1 ZKW      0.154000
     22 H61C        0.1400    0.5010   -4.0190 h1        1 ZKW      0.081700
     23 H62C       -0.4090    0.3900   -2.2600 h1        1 ZKW      0.081700
     24 HA         -0.0870   -1.8930   -1.1570 ha        1 ZKW      0.224000
     25 H          -0.9530   -4.2500   -1.3580 ha        1 ZKW      0.137000
     26 H4         -1.4870   -3.6770   -5.6220 ha        1 ZKW      0.135000
@<TRIPOS>BOND
     1    1    2 1   
     2    2    3 1   
     3    2    4 1   
     4    4    5 2   
     5    4   11 1   
     6    5    6 1   
     7    5   21 1   
     8    6    7 1   
     9    6   10 2   
    10    7    8 1   
    11    7    9 1   
    12   10   11 1   
    13   11   12 1   
    14   12   13 1   
    15   12   22 1   
    16   12   23 1   
    17   13   14 ar  
    18   13   15 ar  
    19   14   20 ar  
    20   14   24 1   
    21   15   16 1   
    22   15   17 ar  
    23   17   18 ar  
    24   17   26 1   
    25   18   19 1   
    26   18   20 ar  
    27   20   25 1   
@<TRIPOS>SUBSTRUCTURE
     1 ZKW         1 TEMP              0 ****  ****    0 ROOT
