@<TRIPOS>MOLECULE
molecule
   26    27     1     0     0
SMALL
bcc


@<TRIPOS>ATOM
      1 O3           0.0000     0.0000     0.0000 o          1 ZKW      -0.865300
      2 C11          1.3480     0.0000     0.0000 c          1 ZKW       0.923200
      3 O2           1.9550     0.0000     1.0520 o          1 ZKW      -0.865300
      4 C7           2.0840     0.0000    -1.2740 cc         1 ZKW      -0.197900
      5 C8           3.4460    -0.0050    -1.4320 cd         1 ZKW      -0.267300
      6 C9           3.6610    -0.0030    -2.8240 cd         1 ZKW       0.271800
      7 C10          4.9720    -0.0080    -3.5040 c          1 ZKW       0.819100
      8 O1           5.0320    -0.0050    -4.8500 o          1 ZKW      -0.857300
      9 O            5.9960    -0.0150    -2.8500 o          1 ZKW      -0.857300
     10 N1           2.4780     0.0030    -3.4090 nc         1 ZKW      -0.535800
     11 N            1.5420    -0.0000    -2.5290 na         1 ZKW       0.125400
     12 C6           0.1070    -0.0010    -2.8270 c3         1 ZKW       0.105600
     13 C2          -0.3530    -1.4140    -3.0790 ca         1 ZKW      -0.070300
     14 C1          -0.9560    -2.1340    -2.0660 ca         1 ZKW      -0.073000
     15 C3          -0.1770    -1.9860    -4.3260 ca         1 ZKW       0.052400
     16 Cl1          0.5750    -1.0790    -5.6000 cl         1 ZKW      -0.070400
     17 C4          -0.6000    -3.2830    -4.5570 ca         1 ZKW      -0.146000
     18 C5          -1.1990    -4.0050    -3.5410 ca         1 ZKW       0.025400
     19 Cl          -1.7310    -5.6330    -3.8300 cl         1 ZKW      -0.166400
     20 C           -1.3780    -3.4300    -2.2950 ca         1 ZKW      -0.150000
     21 H8           4.1730    -0.2710    -0.6750 ha         1 ZKW       0.160000
     22 H61C        -0.4370     0.4110    -1.9860 h1         1 ZKW       0.084700
     23 H62C        -0.0790     0.6020    -3.7080 h1         1 ZKW       0.084700
     24 HA          -1.0970    -1.6830    -1.0910 ha         1 ZKW       0.205000
     25 H           -1.8500    -3.9940    -1.5000 ha         1 ZKW       0.129000
     26 H4          -0.4620    -3.7320    -5.5330 ha         1 ZKW       0.135000
@<TRIPOS>BOND
     1     1     2 1
     2     2     3 1
     3     2     4 1
     4     4     5 2
     5     4    11 1
     6     5     6 1
     7     6     7 1
     8     6    10 2
     9     7     8 1
    10     7     9 1
    11    10    11 1
    12    11    12 1
    13    12    13 1
    14    13    14 ar
    15    13    15 ar
    16    14    20 ar
    17    15    16 1
    18    15    17 ar
    19    17    18 ar
    20    18    19 1
    21    18    20 ar
    22     5    21 1
    23    12    22 1
    24    12    23 1
    25    14    24 1
    26    20    25 1
    27    17    26 1
@<TRIPOS>SUBSTRUCTURE
     1 ZKW         1 TEMP              0 ****  ****    0 ROOT
