@<TRIPOS>MOLECULE
ZLD
   44    46     1     0     0
SMALL
bcc


@<TRIPOS>ATOM
      1 C2           0.0000     0.0000     0.0000 ca         1 ZLD      -0.014400
      2 C5           1.3880     0.0000     0.0000 ca         1 ZLD      -0.185000
      3 C9          -3.1410    -1.2440    -3.3200 c3         1 ZLD       0.041000
      4 C1          -0.6950     0.0000     1.2020 ca         1 ZLD      -0.161000
      5 C3          -0.0050     0.0020     2.3990 ca         1 ZLD      -0.080000
      6 N4          -0.7000     0.0050    -1.2140 n          1 ZLD      -0.035000
      7 C6          -2.1650     0.0060    -1.3570 c3         1 ZLD       0.000000
      8 C7          -0.1460     0.0160    -2.4340 c          1 ZLD       0.775600
      9 C8          -2.3850     0.0120    -2.8810 c3         1 ZLD       0.140100
     10 O10         -1.0360     0.0200    -3.4330 os         1 ZLD      -0.367900
     11 C12         -3.9850    -2.2240    -5.3850 c          1 ZLD       0.573100
     12 C13         -4.1870    -2.1930    -6.8780 c3         1 ZLD      -0.065100
     13 O14         -4.4050    -3.1580    -4.7350 o          1 ZLD      -0.646100
     14 O15          1.0550     0.0230    -2.6160 o          1 ZLD      -0.660500
     15 C16          2.0800     0.0000     1.1970 ca         1 ZLD       0.170900
     16 C17          1.3830     0.0020     2.4010 ca         1 ZLD      -0.048400
     17 F18          3.4310     0.0000     1.1980 f          1 ZLD      -0.115900
     18 N19          2.0820     0.0030     3.6150 nh         1 ZLD      -0.384000
     19 C20          1.7500     1.1930     4.4120 c3         1 ZLD       0.105800
     20 C21          2.5790     1.1860     5.7000 c3         1 ZLD       0.214400
     21 O22          2.3320    -0.0300     6.4120 os         1 ZLD      -0.413600
     22 C23          2.6450    -1.2090     5.6650 c3         1 ZLD       0.214400
     23 C24          1.8170    -1.2250     4.3780 c3         1 ZLD       0.105800
     24 H5           1.9300    -0.0010    -0.9380 ha         1 ZLD       0.187000
     25 H9          -2.5670    -2.1230    -3.0520 h1         1 ZLD       0.038200
     26 H9A         -4.1040    -1.2770    -2.8250 h1         1 ZLD       0.038200
     27 H1          -1.7780     0.0000     1.2010 ha         1 ZLD       0.112000
     28 H3          -0.5480     0.0020     3.3360 ha         1 ZLD       0.118000
     29 H6          -2.5190    -0.9500    -0.9900 h1         1 ZLD       0.050700
     30 H6A         -2.5190     0.9590    -0.9820 h1         1 ZLD       0.050700
     31 H8          -2.9190     0.9060    -3.1800 h1         1 ZLD       0.045700
     32 HN11        -3.0090    -0.4330    -5.3050 hn         1 ZLD       0.182500
     33 H13         -4.7850    -1.3290    -7.1440 hc         1 ZLD       0.024367
     34 H13A        -4.6980    -3.0950    -7.1920 hc         1 ZLD       0.024367
     35 H13B        -3.2250    -2.1320    -7.3720 hc         1 ZLD       0.024367
     36 H20          0.6960     1.1770     4.6610 h1         1 ZLD       0.020200
     37 H20A         1.9780     2.0850     3.8410 h1         1 ZLD       0.020200
     38 H21          3.6310     1.2510     5.4520 h1         1 ZLD       0.014950
     39 H21A         2.2940     2.0300     6.3170 h1         1 ZLD       0.014950
     40 H23          3.6990    -1.2090     5.4160 h1         1 ZLD       0.014950
     41 H23A         2.4070    -2.0840     6.2570 h1         1 ZLD       0.014950
     42 H24          0.7640    -1.2740     4.6270 h1         1 ZLD       0.020200
     43 H24A         2.0940    -2.0860     3.7820 h1         1 ZLD       0.020200
     44 N11         -3.3390    -1.2130    -4.7710 ns         1 ZLD      -0.201900
@<TRIPOS>BOND
     1     1     2 ar  
     2     1     4 ar  
     3     1     6 1   
     4     2    15 ar  
     5     2    24 1   
     6     3     9 1   
     7     3    25 1   
     8     3    26 1   
     9     3    44 1   
    10     4     5 ar  
    11     4    27 1   
    12     5    16 ar  
    13     5    28 1   
    14     6     7 1   
    15     6     8 1   
    16     7     9 1   
    17     7    29 1   
    18     7    30 1   
    19     8    10 1   
    20     8    14 2   
    21     9    10 1   
    22     9    31 1   
    23    11    12 1   
    24    11    13 2   
    25    11    44 1   
    26    12    33 1   
    27    12    34 1   
    28    12    35 1   
    29    15    16 ar  
    30    15    17 1   
    31    16    18 1   
    32    18    19 1   
    33    18    23 1   
    34    19    20 1   
    35    19    36 1   
    36    19    37 1   
    37    20    21 1   
    38    20    38 1   
    39    20    39 1   
    40    21    22 1   
    41    22    23 1   
    42    22    40 1   
    43    22    41 1   
    44    23    42 1   
    45    23    43 1   
    46    32    44 1   
@<TRIPOS>SUBSTRUCTURE
     1 ZLD         1 TEMP              0 ****  ****    0 ROOT
