@<TRIPOS>MOLECULE
molecule
   44    46     1     0     0
SMALL
bcc


@<TRIPOS>ATOM
      1 C2           0.0000     0.0000     0.0000 ca         1 ZLD       0.118600
      2 C5           1.3880     0.0000     0.0000 ca         1 ZLD      -0.205000
      3 C9          -3.1410    -1.2440    -3.3200 c3         1 ZLD       0.107000
      4 C1          -0.6950     0.0000     1.2020 ca         1 ZLD      -0.187000
      5 C3          -0.0050     0.0020     2.3990 ca         1 ZLD      -0.110000
      6 N4          -0.7000     0.0050    -1.2140 n          1 ZLD      -0.413000
      7 C6          -2.1650     0.0060    -1.3570 c3         1 ZLD       0.064000
      8 C7          -0.1460     0.0160    -2.4340 c          1 ZLD       0.832600
      9 C8          -2.3850     0.0120    -2.8810 c3         1 ZLD       0.095100
     10 O10         -1.0360     0.0200    -3.4330 os         1 ZLD      -0.371900
     11 C12         -3.9850    -2.2240    -5.3850 c          1 ZLD       0.659100
     12 C13         -4.1870    -2.1930    -6.8780 c3         1 ZLD      -0.169100
     13 O14         -4.4050    -3.1580    -4.7350 o          1 ZLD      -0.607100
     14 O15          1.0550     0.0230    -2.6160 o          1 ZLD      -0.609500
     15 C16          2.0800     0.0000     1.1970 ca         1 ZLD       0.190900
     16 C17          1.3830     0.0020     2.4010 ca         1 ZLD       0.014600
     17 F18          3.4310     0.0000     1.1980 f          1 ZLD      -0.117900
     18 N19          2.0820     0.0030     3.6150 nh         1 ZLD      -0.604000
     19 C20          1.7500     1.1930     4.4120 c3         1 ZLD       0.129800
     20 C21          2.5790     1.1860     5.7000 c3         1 ZLD       0.138400
     21 O22          2.3320    -0.0300     6.4120 os         1 ZLD      -0.426600
     22 C23          2.6450    -1.2090     5.6650 c3         1 ZLD       0.138400
     23 C24          1.8170    -1.2250     4.3780 c3         1 ZLD       0.129800
     24 H5           1.9300    -0.0010    -0.9380 ha         1 ZLD       0.202000
     25 H9          -2.5670    -2.1230    -3.0520 h1         1 ZLD       0.068700
     26 H9A         -4.1040    -1.2770    -2.8250 h1         1 ZLD       0.068700
     27 H1          -1.7780     0.0000     1.2010 ha         1 ZLD       0.133000
     28 H3          -0.5480     0.0020     3.3360 ha         1 ZLD       0.144000
     29 H6          -2.5190    -0.9500    -0.9900 h1         1 ZLD       0.082700
     30 H6A         -2.5190     0.9590    -0.9820 h1         1 ZLD       0.082700
     31 H8          -2.9190     0.9060    -3.1800 h1         1 ZLD       0.085700
     32 HN11        -3.0090    -0.4330    -5.3050 hn         1 ZLD       0.323500
     33 H13         -4.7850    -1.3290    -7.1440 hc         1 ZLD       0.063700
     34 H13A        -4.6980    -3.0950    -7.1920 hc         1 ZLD       0.063700
     35 H13B        -3.2250    -2.1320    -7.3720 hc         1 ZLD       0.063700
     36 H20          0.6960     1.1770     4.6610 h1         1 ZLD       0.046450
     37 H20A         1.9780     2.0850     3.8410 h1         1 ZLD       0.046450
     38 H21          3.6310     1.2510     5.4520 h1         1 ZLD       0.056450
     39 H21A         2.2940     2.0300     6.3170 h1         1 ZLD       0.056450
     40 H23          3.6990    -1.2090     5.4160 h1         1 ZLD       0.056450
     41 H23A         2.4070    -2.0840     6.2570 h1         1 ZLD       0.056450
     42 H24          0.7640    -1.2740     4.6270 h1         1 ZLD       0.046450
     43 H24A         2.0940    -2.0860     3.7820 h1         1 ZLD       0.046450
     44 N11         -3.3390    -1.2130    -4.7710 ns         1 ZLD      -0.589900
@<TRIPOS>BOND
     1     1     2 ar
     2     1     4 ar
     3     1     6 1
     4     2    15 ar
     5     3     9 1
     6     3    44 1
     7     4     5 ar
     8     5    16 ar
     9     6     7 1
    10     6     8 1
    11     7     9 1
    12     8    10 1
    13     8    14 2
    14     9    10 1
    15    44    11 1
    16    11    12 1
    17    11    13 2
    18    15    16 ar
    19    15    17 1
    20    16    18 1
    21    18    19 1
    22    18    23 1
    23    19    20 1
    24    20    21 1
    25    21    22 1
    26    22    23 1
    27     2    24 1
    28     3    25 1
    29     3    26 1
    30     4    27 1
    31     5    28 1
    32     7    29 1
    33     7    30 1
    34     9    31 1
    35    44    32 1
    36    12    33 1
    37    12    34 1
    38    12    35 1
    39    19    36 1
    40    19    37 1
    41    20    38 1
    42    20    39 1
    43    22    40 1
    44    22    41 1
    45    23    42 1
    46    23    43 1
@<TRIPOS>SUBSTRUCTURE
     1 ZLD         1 TEMP              0 ****  ****    0 ROOT
