@<TRIPOS>MOLECULE
ZMA
   42    45     1     0     0
SMALL
bcc


@<TRIPOS>ATOM
      1 C1         -0.7880    0.5220   -0.1160 ca        1 ZMA     -0.071000
      2 C2          0.3050    0.4500   -0.9730 ca        1 ZMA     -0.180500
      3 C3          1.4230   -0.3160   -0.6010 ca        1 ZMA      0.177100
      4 O4          2.5330   -0.4480   -1.3840 oh        1 ZMA     -0.469100
      5 C5          1.4440   -1.0050    0.6290 ca        1 ZMA     -0.180500
      6 C6          0.3450   -0.9180    1.4700 ca        1 ZMA     -0.071000
      7 C7         -0.7790   -0.1620    1.1050 ca        1 ZMA     -0.194300
      8 C8         -1.9310   -0.0500    2.0360 c3        1 ZMA     -0.034100
      9 C9         -2.8220   -1.2800    1.8330 c3        1 ZMA      0.106800
     10 N10        -4.0000   -1.2720    2.7750 n4        1 ZMA     -0.745700
     11 C11        -4.8500   -2.4860    2.5870 cc        1 ZMA      0.776900
     12 N12        -5.7410   -2.4370    1.5690 nd        1 ZMA     -0.594000
     13 N13        -4.6140   -3.5280    3.4800 nc        1 ZMA     -0.725000
     14 C14        -5.3790   -4.6420    3.3190 cd        1 ZMA      0.644400
     15 N15        -5.1730   -5.7810    4.2550 n4        1 ZMA     -0.822300
     16 N16        -6.3270   -4.7560    2.3330 na        1 ZMA     -0.102600
     17 N17        -7.1650   -5.7340    2.0100 nd        1 ZMA     -0.580100
     18 C18        -6.5160   -3.5600    1.3960 cd        1 ZMA      0.461500
     19 N19        -7.4890   -3.9020    0.5310 nc        1 ZMA     -0.265300
     20 C20        -7.8800   -5.2270    0.9120 cc        1 ZMA      0.631300
     21 C21        -8.8960   -5.9170    0.2170 cc        1 ZMA      0.104400
     22 C22        -9.7000   -5.5610   -0.8820 cd        1 ZMA     -0.054300
     23 C23       -10.5540   -6.6730   -1.1410 cd        1 ZMA     -0.281300
     24 C24       -10.2380   -7.6530   -0.1970 cc        1 ZMA      0.381600
     25 O25        -9.2330   -7.2230    0.6430 os        1 ZMA     -0.329800
     26 H1         -1.6570    1.1350   -0.4020 ha        1 ZMA      0.133000
     27 H2          0.3000    0.9970   -1.9280 ha        1 ZMA      0.167000
     28 HO4         2.4330    0.1110   -2.1720 ho        1 ZMA      0.442000
     29 H5          2.3370   -1.5870    0.9060 ha        1 ZMA      0.167000
     30 H6          0.3680   -1.4350    2.4420 ha        1 ZMA      0.133000
     31 H8         -2.5110    0.8890    1.8260 hc        1 ZMA      0.074200
     32 H8A        -1.5630   -0.0030    3.0960 hc        1 ZMA      0.074200
     33 H9         -3.2200   -1.2990    0.7780 hx        1 ZMA      0.118700
     34 H9A        -2.2310   -2.2200    2.0280 hx        1 ZMA      0.118700
     35 HN10       -4.5730   -0.4300    2.5930 hn        1 ZMA      0.485800
     36 HN15       -6.0560   -5.9740    4.7570 hn        1 ZMA      0.503133
     37 HN1A       -4.9010   -6.6210    3.7170 hn        1 ZMA      0.503133
     38 H22        -9.6730   -4.6150   -1.4290 ha        1 ZMA      0.202000
     39 H23       -11.3090   -6.7400   -1.9260 ha        1 ZMA      0.210000
     40 H24       -10.6090   -8.6620    0.0110 h4        1 ZMA      0.095100
     41 H102       -3.6620   -1.2320    3.7480 hn        1 ZMA      0.485800
     42 H153       -4.4310   -5.5550    4.9380 hn        1 ZMA      0.503133
@<TRIPOS>BOND
     1    1    2 ar  
     2    1    7 ar  
     3    1   26 1   
     4    2    3 ar  
     5    2   27 1   
     6    3    4 1   
     7    3    5 ar  
     8    4   28 1   
     9    5    6 ar  
    10    5   29 1   
    11    6    7 ar  
    12    6   30 1   
    13    7    8 1   
    14    8    9 1   
    15    8   31 1   
    16    8   32 1   
    17    9   10 1   
    18    9   33 1   
    19    9   34 1   
    20   10   11 1   
    21   10   35 1   
    22   10   41 1   
    23   11   12 2   
    24   11   13 1   
    25   12   18 1   
    26   13   14 2   
    27   14   15 1   
    28   14   16 1   
    29   15   36 1   
    30   15   37 1   
    31   15   42 1   
    32   16   17 1   
    33   16   18 1   
    34   17   20 2   
    35   18   19 2   
    36   19   20 1   
    37   20   21 1   
    38   21   22 2   
    39   21   25 1   
    40   22   23 1   
    41   22   38 1   
    42   23   24 2   
    43   23   39 1   
    44   24   25 1   
    45   24   40 1   
@<TRIPOS>SUBSTRUCTURE
     1 ZMA         1 TEMP              0 ****  ****    0 ROOT
