@<TRIPOS>MOLECULE
molecule
   24    26     1     0     0
SMALL
bcc


@<TRIPOS>ATOM
      1 CAA          0.0000     0.0000     0.0000 c3         1 ZME      -0.013800
      2 CAK          1.5070     0.0000     0.0000 cc         1 ZME      -0.156300
      3 CAF          2.3040     0.0000     1.0860 cd         1 ZME      -0.133300
      4 CAC          2.3400    -0.0060    -1.1380 cc         1 ZME      -0.195000
      5 CAE          3.6160    -0.0050    -0.7050 cd         1 ZME      -0.126300
      6 N6           3.6040    -0.0010     0.6620 na         1 ZME      -0.083900
      7 C6           4.7270    -0.0010     1.4850 ca         1 ZME       0.630800
      8 N1           4.7220     0.6490     2.6430 nb         1 ZME      -0.773000
      9 C2           5.7820     0.6560     3.4290 ca         1 ZME       0.724900
     10 N3           6.8950     0.0260     3.1200 nb         1 ZME      -0.759000
     11 C4           6.9950    -0.6520     1.9830 ca         1 ZME       0.456800
     12 C5           5.8890    -0.6930     1.1130 ca         1 ZME      -0.166200
     13 N7           6.2500    -1.4460     0.0460 nc         1 ZME      -0.576100
     14 C8           7.4740    -1.8630     0.2030 cd         1 ZME       0.431700
     15 N9           7.9790    -1.3930     1.3790 na         1 ZME      -0.359000
     16 H1          -0.3610    -0.3240    -0.9690 hc         1 ZME       0.038367
     17 H2          -0.3610     1.0010     0.2040 hc         1 ZME       0.038367
     18 H3          -0.3610    -0.6770     0.7650 hc         1 ZME       0.038367
     19 H4           1.9730     0.0030     2.1180 h4         1 ZME       0.177000
     20 H5           2.0140    -0.0090    -2.1710 ha         1 ZME       0.152000
     21 H6           4.5000    -0.0070    -1.3320 h4         1 ZME       0.181000
     22 H7           5.7330     1.2000     4.3650 h5         1 ZME       0.070100
     23 H9           8.0110    -2.4920    -0.4970 h5         1 ZME       0.084800
     24 H10          8.8960    -1.5650     1.7400 hn         1 ZME       0.318700
@<TRIPOS>BOND
     1     1     2 1
     2     2     4 1
     3     2     3 2
     4     4     5 2
     5     3     6 1
     6     5     6 1
     7     6     7 1
     8     8     7 ar
     9     8     9 ar
    10     7    12 ar
    11     9    10 ar
    12    12    13 1
    13    12    11 ar
    14    13    14 2
    15    10    11 ar
    16    11    15 1
    17    15    14 1
    18     1    16 1
    19     1    17 1
    20     1    18 1
    21     3    19 1
    22     4    20 1
    23     5    21 1
    24     9    22 1
    25    14    23 1
    26    15    24 1
@<TRIPOS>SUBSTRUCTURE
     1 ZME         1 TEMP              0 ****  ****    0 ROOT
