@<TRIPOS>MOLECULE
ZMG
   30    31     1     0     0
SMALL
bcc


@<TRIPOS>ATOM
      1 C1           0.0000     0.0000     0.0000 ca         1 ZMG      -0.082000
      2 C2           1.3830     0.0000     0.0000 ca         1 ZMG      -0.085000
      3 C3           2.0770     0.0000     1.1960 ca         1 ZMG      -0.113000
      4 C4           1.3910     0.0010     2.3960 ca         1 ZMG       0.070900
      5 C5          -0.0000     0.0020     2.3980 ca         1 ZMG      -0.074400
      6 C6          -0.6930     0.0080     1.1950 ca         1 ZMG      -0.120000
      7 N7          -0.7000     0.0030     3.6100 nu         1 ZMG      -0.121600
      8 C8          -2.0550    -0.1620     3.6170 c2         1 ZMG       0.561100
      9 S9          -3.1200    -0.0320     5.0290 ss         1 ZMG      -0.349300
     10 C10         -4.6350    -0.3920     4.0760 c3         1 ZMG      -0.042600
     11 C11         -4.1020    -0.5860     2.6710 c          1 ZMG       0.728500
     12 N12         -2.8090    -0.4400     2.5760 ne         1 ZMG      -0.704100
     13 F13          2.0690     0.0010     3.5640 f          1 ZMG      -0.128900
     14 O14         -4.8130    -0.8440     1.7200 o          1 ZMG      -0.552100
     15 C15         -5.3070    -1.6680     4.5870 c3         1 ZMG      -0.018700
     16 C16         -4.2920    -2.8130     4.5940 c3         1 ZMG      -0.019600
     17 C17         -5.8250    -1.4380     6.0080 c3         1 ZMG      -0.019600
     18 H1          -0.5410     0.0020    -0.9390 ha         1 ZMG       0.113000
     19 H2           1.9240    -0.0040    -0.9390 ha         1 ZMG       0.109000
     20 H3           3.1610    -0.0000     1.1920 ha         1 ZMG       0.121000
     21 H6          -1.7760     0.0080     1.1930 ha         1 ZMG       0.196000
     22 HN7         -0.2100     0.1480     4.4710 hn         1 ZMG       0.297800
     23 H10         -5.3170     0.4490     4.1120 h1         1 ZMG       0.090700
     24 H15         -6.1360    -1.9240     3.9380 hc         1 ZMG       0.050700
     25 H116        -4.7350    -3.6860     5.0570 hc         1 ZMG       0.015200
     26 H216        -3.4140    -2.5140     5.1530 hc         1 ZMG       0.015200
     27 H316        -4.0080    -3.0490     3.5750 hc         1 ZMG       0.015200
     28 H117        -6.4760    -0.5720     6.0190 hc         1 ZMG       0.015200
     29 H217        -4.9880    -1.2690     6.6750 hc         1 ZMG       0.015200
     30 H317        -6.3780    -2.3100     6.3360 hc         1 ZMG       0.015200
@<TRIPOS>BOND
     1     1     2 ar  
     2     1     6 ar  
     3     1    18 1   
     4     2     3 ar  
     5     2    19 1   
     6     3     4 ar  
     7     3    20 1   
     8     4     5 ar  
     9     4    13 1   
    10     5     6 ar  
    11     5     7 1   
    12     6    21 1   
    13     7     8 1   
    14     7    22 1   
    15     8     9 1   
    16     8    12 2   
    17     9    10 1   
    18    10    11 1   
    19    10    15 1   
    20    10    23 1   
    21    11    12 1   
    22    11    14 2   
    23    15    16 1   
    24    15    17 1   
    25    15    24 1   
    26    16    25 1   
    27    16    26 1   
    28    16    27 1   
    29    17    28 1   
    30    17    29 1   
    31    17    30 1   
@<TRIPOS>SUBSTRUCTURE
     1 ZMG         1 TEMP              0 ****  ****    0 ROOT
