@<TRIPOS>MOLECULE
molecule
   30    31     1     0     0
SMALL
bcc


@<TRIPOS>ATOM
      1 C1           0.0000     0.0000     0.0000 ca         1 ZMG      -0.119000
      2 C2           1.3830     0.0000     0.0000 ca         1 ZMG      -0.119000
      3 C3           2.0770     0.0000     1.1960 ca         1 ZMG      -0.148000
      4 C4           1.3910     0.0010     2.3960 ca         1 ZMG       0.094900
      5 C5          -0.0000     0.0020     2.3980 ca         1 ZMG       0.092600
      6 C6          -0.6930     0.0080     1.1950 ca         1 ZMG      -0.127000
      7 N7          -0.7000     0.0030     3.6100 nu         1 ZMG      -0.654600
      8 C8          -2.0550    -0.1620     3.6170 c2         1 ZMG       0.783100
      9 S9          -3.1200    -0.0320     5.0290 ss         1 ZMG      -0.307300
     10 C10         -4.6350    -0.3920     4.0760 c3         1 ZMG      -0.098600
     11 C11         -4.1020    -0.5860     2.6710 c          1 ZMG       0.741500
     12 N12         -2.8090    -0.4400     2.5760 ne         1 ZMG      -0.809100
     13 F13          2.0690     0.0010     3.5640 f          1 ZMG      -0.147900
     14 O14         -4.8130    -0.8440     1.7200 o          1 ZMG      -0.518100
     15 C15         -5.3070    -1.6680     4.5870 c3         1 ZMG      -0.049700
     16 C16         -4.2920    -2.8130     4.5940 c3         1 ZMG      -0.099600
     17 C17         -5.8250    -1.4380     6.0080 c3         1 ZMG      -0.099600
     18 H1          -0.5410     0.0020    -0.9390 ha         1 ZMG       0.145000
     19 H2           1.9240    -0.0040    -0.9390 ha         1 ZMG       0.139000
     20 H3           3.1610    -0.0000     1.1920 ha         1 ZMG       0.149000
     21 H6          -1.7760     0.0080     1.1930 ha         1 ZMG       0.217000
     22 HN7         -0.2100     0.1480     4.4710 hn         1 ZMG       0.479800
     23 H10         -5.3170     0.4490     4.1120 h1         1 ZMG       0.115700
     24 H15         -6.1360    -1.9240     3.9380 hc         1 ZMG       0.079700
     25 H116        -4.7350    -3.6860     5.0570 hc         1 ZMG       0.043700
     26 H216        -3.4140    -2.5140     5.1530 hc         1 ZMG       0.043700
     27 H316        -4.0080    -3.0490     3.5750 hc         1 ZMG       0.043700
     28 H117        -6.4760    -0.5720     6.0190 hc         1 ZMG       0.043700
     29 H217        -4.9880    -1.2690     6.6750 hc         1 ZMG       0.043700
     30 H317        -6.3780    -2.3100     6.3360 hc         1 ZMG       0.043700
@<TRIPOS>BOND
     1    14    11 2
     2    16    15 1
     3    11    12 1
     4    11    10 1
     5    15    10 1
     6    15    17 1
     7    12     8 2
     8    10     9 1
     9     8     7 1
    10     8     9 1
    11     7     5 1
    12    13     4 1
    13     5     4 ar
    14     5     6 ar
    15     4     3 ar
    16     6     1 ar
    17     3     2 ar
    18     1     2 ar
    19     1    18 1
    20     2    19 1
    21     3    20 1
    22     6    21 1
    23     7    22 1
    24    10    23 1
    25    15    24 1
    26    16    25 1
    27    16    26 1
    28    16    27 1
    29    17    28 1
    30    17    29 1
    31    17    30 1
@<TRIPOS>SUBSTRUCTURE
     1 ZMG         1 TEMP              0 ****  ****    0 ROOT
