@<TRIPOS>MOLECULE
molecule
   66    65     1     0     0
SMALL
bcc


@<TRIPOS>ATOM
      1 OAE          0.0000     0.0000     0.0000 o          1 ZMK      -0.546000
      2 CBB          1.2080     0.0000     0.0000 c          1 ZMK       0.627100
      3 OAX          1.8800     0.0000     1.1620 os         1 ZMK      -0.434900
      4 CAA          1.0880     0.0010     2.3800 c3         1 ZMK       0.138700
      5 CAR          1.9620    -0.0090    -1.3050 c3         1 ZMK      -0.126400
      6 CAM          0.9680    -0.0140    -2.4670 c3         1 ZMK      -0.071400
      7 CAL          1.7340    -0.0220    -3.7930 c3         1 ZMK      -0.085400
      8 CAN          0.7380    -0.0280    -4.9560 c3         1 ZMK      -0.069400
      9 CAT          1.5040    -0.0350    -6.2800 c3         1 ZMK      -0.164400
     10 CBC          0.5240    -0.0410    -7.4260 c          1 ZMK       0.564700
     11 OAF         -0.6680    -0.0380    -7.2050 o          1 ZMK      -0.533100
     12 SAZ          1.0950    -0.0500    -9.0400 ss         1 ZMK      -0.255700
     13 CAQ         -0.4800    -0.0540    -9.9310 c3         1 ZMK      -0.010300
     14 CAO         -0.2150    -0.0630   -11.4370 c3         1 ZMK       0.126000
     15 NAV         -1.4900    -0.0660   -12.1580 ns         1 ZMK      -0.597900
     16 CBA         -1.5020    -0.0730   -13.5060 c          1 ZMK       0.662100
     17 OAD         -0.4570    -0.0770   -14.1220 o          1 ZMK      -0.599100
     18 CAS         -2.8140    -0.0750   -14.2480 c3         1 ZMK      -0.174400
     19 CAP         -2.5480    -0.0850   -15.7540 c3         1 ZMK       0.128000
     20 NAW         -3.8240    -0.0880   -16.4750 ns         1 ZMK      -0.598900
     21 CBD         -3.8370    -0.0950   -17.8220 c          1 ZMK       0.649100
     22 OAG         -2.7950    -0.0070   -18.4390 o          1 ZMK      -0.621100
     23 CBE         -5.1440    -0.2120   -18.5630 c3         1 ZMK       0.084100
     24 OAI         -6.1970    -0.4660   -17.6330 oh         1 ZMK      -0.601800
     25 CBF         -5.4260     1.0940   -19.3090 c3         1 ZMK      -0.064000
     26 CAC         -5.3740     2.2640   -18.3260 c3         1 ZMK      -0.074600
     27 CAB         -4.3710     1.2970   -20.3990 c3         1 ZMK      -0.074600
     28 CAU         -6.8140     1.0250   -19.9490 c3         1 ZMK       0.232400
     29 OAY         -7.0770     2.2450   -20.6460 os         1 ZMK      -0.578200
     30 PBG         -8.4500     2.5230   -21.4400 p5         1 ZMK       1.179900
     31 OAJ         -9.5970     2.3250   -20.5270 o          1 ZMK      -0.909833
     32 OAK         -8.4560     4.0350   -21.9900 o          1 ZMK      -0.909833
     33 OAH         -8.5700     1.5000   -22.6790 o          1 ZMK      -0.909833
     34 H1           1.7480     0.0030     3.2390 h1         1 ZMK       0.048033
     35 H2           0.4640    -0.8830     2.4060 h1         1 ZMK       0.048033
     36 H3           0.4630     0.8860     2.4030 h1         1 ZMK       0.048033
     37 H4           2.5840    -0.8950    -1.3570 hc         1 ZMK       0.070700
     38 H5           2.5860     0.8740    -1.3680 hc         1 ZMK       0.070700
     39 H6           0.3440    -0.8980    -2.4050 hc         1 ZMK       0.062200
     40 H7           0.3460     0.8710    -2.4150 hc         1 ZMK       0.062200
     41 H8           2.3560    -0.9070    -3.8450 hc         1 ZMK       0.039200
     42 H9           2.3570     0.8620    -3.8550 hc         1 ZMK       0.039200
     43 H10          0.1160     0.8570    -4.9040 hc         1 ZMK       0.060200
     44 H11          0.1150    -0.9120    -4.8940 hc         1 ZMK       0.060200
     45 H12          2.1270     0.8490    -6.3420 hc         1 ZMK       0.071200
     46 H13          2.1260    -0.9200    -6.3330 hc         1 ZMK       0.071200
     47 H14         -1.0450     0.8330    -9.6690 h1         1 ZMK       0.079700
     48 H15         -1.0460    -0.9360    -9.6590 h1         1 ZMK       0.079700
     49 H16          0.3500    -0.9490   -11.6990 h1         1 ZMK       0.062200
     50 H17          0.3520     0.8200   -11.7100 h1         1 ZMK       0.062200
     51 H18         -2.3520    -0.0270   -11.6510 hn         1 ZMK       0.314500
     52 H19         -3.3810    -0.9570   -13.9760 hc         1 ZMK       0.064700
     53 H20         -3.3780     0.8110   -13.9860 hc         1 ZMK       0.064700
     54 H21         -1.9820     0.7980   -16.0260 h1         1 ZMK       0.060700
     55 H22         -1.9830    -0.9710   -16.0160 h1         1 ZMK       0.060700
     56 H23         -4.6850    -0.1250   -15.9670 hn         1 ZMK       0.323500
     57 H24         -5.0840    -1.0280   -19.2730 h1         1 ZMK       0.060700
     58 H25         -6.3970    -1.3880   -17.6290 ho         1 ZMK       0.386000
     59 H26         -6.0740     2.0880   -17.5180 hc         1 ZMK       0.035700
     60 H27         -5.6400     3.1800   -18.8400 hc         1 ZMK       0.035700
     61 H28         -4.3730     2.3540   -17.9230 hc         1 ZMK       0.035700
     62 H29         -4.7560     1.9720   -21.1540 hc         1 ZMK       0.035700
     63 H30         -3.4750     1.7200   -19.9600 hc         1 ZMK       0.035700
     64 H31         -4.1340     0.3430   -20.8550 hc         1 ZMK       0.035700
     65 H32         -7.5610     0.8820   -19.1780 h1         1 ZMK       0.017200
     66 H33         -6.8500     0.1960   -20.6450 h1         1 ZMK       0.017200
@<TRIPOS>BOND
     1    31    30 1
     2    33    30 1
     3    30    29 1
     4    30    32 1
     5    28    29 1
     6    28    25 1
     7    24    23 1
     8    23    25 1
     9    23    21 1
    10    26    25 1
    11    25    27 1
    12    21    20 1
    13    21    22 2
    14    20    19 1
    15    19    18 1
    16    17    16 2
    17    18    16 1
    18    16    15 1
    19    15    14 1
    20    14    13 1
    21    13    12 1
    22    12    10 1
    23     7     8 1
    24     7     6 1
    25    11    10 2
    26     5     2 1
    27     5     6 1
    28     3     2 1
    29     3     4 1
    30    10     9 1
    31     8     9 1
    32     2     1 2
    33     4    34 1
    34     4    35 1
    35     4    36 1
    36     5    37 1
    37     5    38 1
    38     6    39 1
    39     6    40 1
    40     7    41 1
    41     7    42 1
    42     8    43 1
    43     8    44 1
    44     9    45 1
    45     9    46 1
    46    13    47 1
    47    13    48 1
    48    14    49 1
    49    14    50 1
    50    15    51 1
    51    18    52 1
    52    18    53 1
    53    19    54 1
    54    19    55 1
    55    20    56 1
    56    23    57 1
    57    24    58 1
    58    26    59 1
    59    26    60 1
    60    26    61 1
    61    27    62 1
    62    27    63 1
    63    27    64 1
    64    28    65 1
    65    28    66 1
@<TRIPOS>SUBSTRUCTURE
     1 ZMK         1 TEMP              0 ****  ****    0 ROOT
