@<TRIPOS>MOLECULE
ZMK
   66    65     1     0     0
SMALL
bcc


@<TRIPOS>ATOM
      1 OAE        -1.6040    0.8510   -1.5740 o         1 ZMK     -0.541000
      2 CBB        -0.4990    1.1160   -2.0520 c         1 ZMK      0.631100
      3 OAX         0.5960    0.9720   -1.2370 os        1 ZMK     -0.446900
      4 CAA         0.3540    0.5080    0.0890 c3        1 ZMK      0.126700
      5 CAR        -0.1430    1.6070   -3.4190 c3        1 ZMK     -0.126400
      6 CAM        -0.6820    0.6780   -4.4880 c3        1 ZMK     -0.077400
      7 CAL        -0.3190    1.1920   -5.8660 c3        1 ZMK     -0.078400
      8 CAN        -0.8310    0.2630   -6.9460 c3        1 ZMK     -0.073400
      9 CAT        -0.3970    0.7400   -8.3160 c3        1 ZMK     -0.174400
     10 CBC        -0.7820   -0.2440   -9.3930 c         1 ZMK      0.541700
     11 OAF        -0.6200   -1.4630   -9.2470 o         1 ZMK     -0.556100
     12 SAZ        -1.4140    0.6020  -10.7280 ss        1 ZMK     -0.198700
     13 CAQ        -1.7900   -0.5680  -11.9930 c3        1 ZMK     -0.053300
     14 CAO        -0.5550   -0.9490  -12.7990 c3        1 ZMK      0.111000
     15 NAV        -0.8900   -1.5640  -14.0580 n         1 ZMK     -0.552900
     16 CBA         0.0990   -1.9820  -14.9100 c         1 ZMK      0.646100
     17 OAD         1.3060   -2.0090  -14.5610 o         1 ZMK     -0.688100
     18 CAS        -0.3100   -2.4820  -16.2830 c3        1 ZMK     -0.188400
     19 CAP        -0.6250   -1.3360  -17.2550 c3        1 ZMK      0.093000
     20 NAW        -1.7220   -0.4900  -16.8980 n         1 ZMK     -0.560900
     21 CBD        -3.0330   -0.9950  -16.8400 c         1 ZMK      0.572100
     22 OAG        -3.3450   -1.9700  -17.5580 o         1 ZMK     -0.685100
     23 CBE        -3.9970   -0.3430  -15.7670 c3        1 ZMK      0.348800
     24 OAI        -3.3500   -0.1920  -14.6210 o         1 ZMK     -0.910500
     25 CBF        -4.6120    0.9640  -16.3650 c3        1 ZMK     -0.112000
     26 CAC        -3.6540    2.1270  -16.1990 c3        1 ZMK     -0.073100
     27 CAB        -4.9480    0.7670  -17.8310 c3        1 ZMK     -0.073100
     28 CAU        -5.9150    1.2430  -15.5840 c3        1 ZMK      0.207400
     29 OAY        -6.6350    2.3080  -16.1360 os        1 ZMK     -0.596200
     30 PBG        -7.2460    3.4420  -15.1100 p5        1 ZMK      1.430800
     31 OAJ        -5.8470    4.2500  -14.8390 oh        1 ZMK     -0.784400
     32 OAK        -8.1740    4.3070  -15.8670 o         1 ZMK     -0.847500
     33 OAH        -7.5620    2.7830  -13.8230 o         1 ZMK     -0.847500
     34 H1         -0.3030    1.2300    0.6320 h1        1 ZMK      0.046033
     35 H2          1.3730    0.4600    0.5460 h1        1 ZMK      0.046033
     36 H3         -0.1290   -0.4980    0.0610 h1        1 ZMK      0.046033
     37 H4         -0.5880    2.6310   -3.5370 hc        1 ZMK      0.076700
     38 H5          0.9720    1.6980   -3.5090 hc        1 ZMK      0.076700
     39 H6         -1.7970    0.5970   -4.3890 hc        1 ZMK      0.057700
     40 H7         -0.2580   -0.3500   -4.3460 hc        1 ZMK      0.057700
     41 H8          0.7960    1.2870   -5.9490 hc        1 ZMK      0.039700
     42 H9         -0.7520    2.2160   -6.0140 hc        1 ZMK      0.039700
     43 H10        -1.9510    0.2110   -6.9020 hc        1 ZMK      0.056700
     44 H11        -0.4430   -0.7770   -6.7780 hc        1 ZMK      0.056700
     45 H12        -0.8480    1.7450   -8.5340 hc        1 ZMK      0.066200
     46 H13         0.7200    0.8540   -8.3430 hc        1 ZMK      0.066200
     47 H14        -2.5550   -0.0460  -12.6480 h1        1 ZMK      0.135700
     48 H15        -2.2730   -1.4780  -11.5640 h1        1 ZMK      0.135700
     49 H16         0.0830   -1.6670  -12.2060 h1        1 ZMK      0.034700
     50 H17         0.0670   -0.0240  -12.9800 h1        1 ZMK      0.034700
     51 H18        -1.8270   -1.3730  -14.4090 hn        1 ZMK      0.385500
     52 H19        -1.2060   -3.1520  -16.2030 hc        1 ZMK      0.063700
     53 H20         0.5430   -3.0780  -16.6960 hc        1 ZMK      0.063700
     54 H21         0.2980   -0.7020  -17.3700 h1        1 ZMK      0.038700
     55 H22        -0.8630   -1.8090  -18.2510 h1        1 ZMK      0.038700
     56 H23        -1.5310    0.1740  -16.1740 hn        1 ZMK      0.303500
     57 H24        -4.8380   -1.1090  -15.7140 h1        1 ZMK     -0.033300
     58 H25        -5.2070    3.7190  -14.3790 ho        1 ZMK      0.421000
     59 H26        -2.7700    2.0130  -16.8710 hc        1 ZMK      0.023033
     60 H27        -3.2960    2.1620  -15.1410 hc        1 ZMK      0.023033
     61 H28        -4.1600    3.0900  -16.4500 hc        1 ZMK      0.023033
     62 H29        -5.5330   -0.1750  -17.9660 hc        1 ZMK      0.023033
     63 H30        -4.0170    0.6920  -18.4440 hc        1 ZMK      0.023033
     64 H31        -5.5580    1.6270  -18.1990 hc        1 ZMK      0.023033
     65 H32        -5.6720    1.4540  -14.5070 h1        1 ZMK      0.022700
     66 H33        -6.5560    0.3170  -15.6400 h1        1 ZMK      0.022700
@<TRIPOS>BOND
     1    1    2 2   
     2    2    3 1   
     3    2    5 1   
     4    3    4 1   
     5    4   34 1   
     6    4   35 1   
     7    4   36 1   
     8    5    6 1   
     9    5   37 1   
    10    5   38 1   
    11    6    7 1   
    12    6   39 1   
    13    6   40 1   
    14    7    8 1   
    15    7   41 1   
    16    7   42 1   
    17    8    9 1   
    18    8   43 1   
    19    8   44 1   
    20    9   10 1   
    21    9   45 1   
    22    9   46 1   
    23   10   11 2   
    24   10   12 1   
    25   12   13 1   
    26   13   14 1   
    27   13   47 1   
    28   13   48 1   
    29   14   15 1   
    30   14   49 1   
    31   14   50 1   
    32   15   16 1   
    33   15   51 1   
    34   16   17 2   
    35   16   18 1   
    36   18   19 1   
    37   18   52 1   
    38   18   53 1   
    39   19   20 1   
    40   19   54 1   
    41   19   55 1   
    42   20   21 1   
    43   20   56 1   
    44   21   22 2   
    45   21   23 1   
    46   23   24 1   
    47   23   25 1   
    48   23   57 1   
    49   25   26 1   
    50   25   27 1   
    51   25   28 1   
    52   26   59 1   
    53   26   60 1   
    54   26   61 1   
    55   27   62 1   
    56   27   63 1   
    57   27   64 1   
    58   28   29 1   
    59   28   65 1   
    60   28   66 1   
    61   29   30 1   
    62   30   31 1   
    63   30   32 1   
    64   30   33 1   
    65   31   58 1   
@<TRIPOS>SUBSTRUCTURE
     1 ZMK         1 TEMP              0 ****  ****    0 ROOT
