@<TRIPOS>MOLECULE
molecule
   94    93     1     0     0
SMALL
bcc


@<TRIPOS>ATOM
      1 O23          0.0000     0.0000     0.0000 o          1 ZMO      -0.839167
      2 P24          1.6100     0.0000     0.0000 p5         1 ZMO       1.200900
      3 O26          2.1040     0.0000     1.3940 o          1 ZMO      -0.839167
      4 O27          2.1460    -1.3150    -0.7590 os         1 ZMO      -0.591200
      5 C28          3.5310    -1.6580    -0.8370 c3         1 ZMO       0.229400
      6 C29          3.6910    -2.9600    -1.6240 c3         1 ZMO      -0.071000
      7 C31          2.9270    -4.0810    -0.9160 c3         1 ZMO      -0.067600
      8 C30          3.1310    -2.7740    -3.0360 c3         1 ZMO      -0.067600
      9 C32          5.1740    -3.3280    -1.7080 c3         1 ZMO       0.088100
     10 O33          5.6650    -3.6240    -0.3990 oh         1 ZMO      -0.553800
     11 C34          5.9460    -2.1690    -2.2840 c          1 ZMO       0.642100
     12 O35          6.6160    -1.4660    -1.5580 o          1 ZMO      -0.574100
     13 N36          5.8930    -1.9160    -3.6070 ns         1 ZMO      -0.603900
     14 C37          6.7300    -0.8610    -4.1850 c3         1 ZMO       0.129000
     15 C38          6.4800    -0.7800    -5.6920 c3         1 ZMO      -0.175400
     16 C39          7.3410     0.3040    -6.2860 c          1 ZMO       0.664100
     17 O40          8.0820     0.9490    -5.5740 o          1 ZMO      -0.593100
     18 N41          7.2880     0.5580    -7.6090 ns         1 ZMO      -0.597900
     19 C42          8.1250     1.6120    -8.1860 c3         1 ZMO       0.126000
     20 C43          7.8750     1.6940    -9.6940 c3         1 ZMO      -0.010300
     21 S1           8.9090     2.9970   -10.4080 ss         1 ZMO      -0.256700
     22 C1           8.4460     2.8770   -12.0520 c          1 ZMO       0.565700
     23 O1           7.6220     2.0530   -12.3910 o          1 ZMO      -0.537100
     24 C2           9.0620     3.7930   -13.0760 c3         1 ZMO      -0.163400
     25 C3           8.4790     3.4800   -14.4570 c3         1 ZMO      -0.071400
     26 C4           9.1040     4.4110   -15.4980 c3         1 ZMO      -0.084400
     27 C5           8.5210     4.0980   -16.8770 c3         1 ZMO      -0.078400
     28 C6           9.1460     5.0300   -17.9180 c3         1 ZMO      -0.091400
     29 C7           8.5640     4.7160   -19.2970 c3         1 ZMO      -0.093400
     30 C8           9.1890     5.6470   -20.3380 c3         1 ZMO       0.058800
     31 C9           8.6150     5.3380   -21.6980 c2         1 ZMO      -0.269200
     32 C10          8.0990     6.2980   -22.4240 c2         1 ZMO      -0.280200
     33 C11          8.2210     7.7320   -21.9750 c3         1 ZMO       0.060800
     34 C12          8.8100     8.5740   -23.1090 c3         1 ZMO      -0.093400
     35 C13          8.9340    10.0280   -22.6530 c3         1 ZMO      -0.091400
     36 C14          9.5230    10.8700   -23.7860 c3         1 ZMO      -0.080400
     37 C15          9.6470    12.3250   -23.3300 c3         1 ZMO      -0.083400
     38 C16         10.2350    13.1670   -24.4640 c3         1 ZMO      -0.081400
     39 H28          3.9270    -1.7900     0.1630 h1         1 ZMO       0.035200
     40 H28A         4.0720    -0.8640    -1.3370 h1         1 ZMO       0.035200
     41 H31          3.0910    -4.0110     0.1530 hc         1 ZMO       0.029867
     42 H31A         3.2810    -5.0410    -1.2730 hc         1 ZMO       0.029867
     43 H31B         1.8680    -3.9860    -1.1260 hc         1 ZMO       0.029867
     44 H30          3.2970    -1.7530    -3.3580 hc         1 ZMO       0.029867
     45 H30A         2.0690    -2.9840    -3.0340 hc         1 ZMO       0.029867
     46 H30B         3.6320    -3.4530    -3.7150 hc         1 ZMO       0.029867
     47 H32          5.2960    -4.1960    -2.3440 h1         1 ZMO       0.011700
     48 HO33         6.2730    -4.3430    -0.4470 ho         1 ZMO       0.376000
     49 HN36         5.3280    -2.4880    -4.2020 hn         1 ZMO       0.306500
     50 H37          7.7740    -1.0880    -4.0040 h1         1 ZMO       0.069700
     51 H37A         6.4820     0.0880    -3.7260 h1         1 ZMO       0.069700
     52 H38          6.7270    -1.7300    -6.1510 hc         1 ZMO       0.062700
     53 H38A         5.4360    -0.5530    -5.8730 hc         1 ZMO       0.062700
     54 HN41         6.6920     0.0130    -8.2000 hn         1 ZMO       0.312500
     55 H42          7.8770     2.5620    -7.7270 h1         1 ZMO       0.063700
     56 H42A         9.1690     1.3850    -8.0050 h1         1 ZMO       0.063700
     57 H43          8.1230     0.7440   -10.1520 h1         1 ZMO       0.078200
     58 H43A         6.8320     1.9210    -9.8750 h1         1 ZMO       0.078200
     59 H2          10.1350     3.6450   -13.0950 hc         1 ZMO       0.071200
     60 H2A          8.8440     4.8220   -12.8170 hc         1 ZMO       0.071200
     61 H3           8.6970     2.4510   -14.7160 hc         1 ZMO       0.056200
     62 H3A          7.4060     3.6280   -14.4380 hc         1 ZMO       0.056200
     63 H4           8.8870     5.4400   -15.2390 hc         1 ZMO       0.038200
     64 H4A         10.1770     4.2630   -15.5170 hc         1 ZMO       0.038200
     65 H5           8.7390     3.0690   -17.1360 hc         1 ZMO       0.044200
     66 H5A          7.4480     4.2470   -16.8580 hc         1 ZMO       0.044200
     67 H6          10.2190     4.8820   -17.9370 hc         1 ZMO       0.035200
     68 H6A          8.9280     6.0590   -17.6590 hc         1 ZMO       0.035200
     69 H7           8.7820     3.6870   -19.5560 hc         1 ZMO       0.050700
     70 H7A          7.4910     4.8640   -19.2780 hc         1 ZMO       0.050700
     71 H8           8.9700     6.6760   -20.0800 hc         1 ZMO       0.027700
     72 H8A         10.2620     5.4990   -20.3570 hc         1 ZMO       0.027700
     73 H9           9.6290     5.7050   -21.5870 ha         1 ZMO       0.048000
     74 H10          7.4020     6.7240   -21.7120 ha         1 ZMO       0.051000
     75 H11          7.2420     8.1130   -21.7130 hc         1 ZMO       0.028200
     76 H11A         8.8720     7.7850   -21.1100 hc         1 ZMO       0.028200
     77 H12          8.1600     8.5200   -23.9730 hc         1 ZMO       0.048200
     78 H12A         9.7900     8.1930   -23.3700 hc         1 ZMO       0.048200
     79 H13          7.9540    10.4090   -22.3920 hc         1 ZMO       0.036700
     80 H13A         9.5840    10.0820   -21.7880 hc         1 ZMO       0.036700
     81 H14         10.5030    10.4880   -24.0470 hc         1 ZMO       0.040200
     82 H14A         8.8730    10.8160   -24.6510 hc         1 ZMO       0.040200
     83 H15          8.6670    12.7060   -23.0680 hc         1 ZMO       0.040200
     84 H15A        10.2980    12.3790   -22.4660 hc         1 ZMO       0.040200
     85 H16A        11.2150    12.7850   -24.7260 hc         1 ZMO       0.039700
     86 H16B         9.5840    13.1140   -25.3280 hc         1 ZMO       0.039700
     87 C17         10.3600    14.6220   -24.0080 c3         1 ZMO      -0.084400
     88 C18         10.9490    15.4630   -25.1420 c3         1 ZMO      -0.092100
     89 H50         11.0100    14.6750   -23.1440 hc         1 ZMO       0.039700
     90 H51          9.3800    15.0030   -23.7470 hc         1 ZMO       0.039700
     91 H52         10.3200    15.3780   -26.0200 hc         1 ZMO       0.030700
     92 H53         10.9990    16.5010   -24.8340 hc         1 ZMO       0.030700
     93 H54         11.9450    15.1080   -25.3760 hc         1 ZMO       0.030700
     94 O28          2.1470     1.3130    -0.7620 o          1 ZMO      -0.839167
@<TRIPOS>BOND
     1     1     2 1
     2     2     3 1
     3     2     4 1
     4     4     5 1
     5     5     6 1
     6     5    39 1
     7     5    40 1
     8     6     7 1
     9     6     8 1
    10     6     9 1
    11     7    41 1
    12     7    42 1
    13     7    43 1
    14     8    44 1
    15     8    45 1
    16     8    46 1
    17     9    10 1
    18     9    11 1
    19     9    47 1
    20    10    48 1
    21    11    12 2
    22    11    13 1
    23    13    14 1
    24    13    49 1
    25    14    15 1
    26    14    50 1
    27    14    51 1
    28    15    16 1
    29    15    52 1
    30    15    53 1
    31    16    17 2
    32    16    18 1
    33    18    19 1
    34    18    54 1
    35    19    20 1
    36    19    55 1
    37    19    56 1
    38    20    21 1
    39    20    57 1
    40    20    58 1
    41    21    22 1
    42    22    23 2
    43    22    24 1
    44    24    25 1
    45    24    59 1
    46    24    60 1
    47    25    26 1
    48    25    61 1
    49    25    62 1
    50    26    27 1
    51    26    63 1
    52    26    64 1
    53    27    28 1
    54    27    65 1
    55    27    66 1
    56    28    29 1
    57    28    67 1
    58    28    68 1
    59    29    30 1
    60    29    69 1
    61    29    70 1
    62    30    31 1
    63    30    71 1
    64    30    72 1
    65    31    32 2
    66    31    73 1
    67    32    33 1
    68    32    74 1
    69    33    34 1
    70    33    75 1
    71    33    76 1
    72    34    35 1
    73    34    77 1
    74    34    78 1
    75    35    36 1
    76    35    79 1
    77    35    80 1
    78    36    37 1
    79    36    81 1
    80    36    82 1
    81    37    38 1
    82    37    83 1
    83    37    84 1
    84    38    85 1
    85    38    86 1
    86    38    87 1
    87    87    88 1
    88    87    89 1
    89    87    90 1
    90    88    91 1
    91    88    92 1
    92    88    93 1
    93     2    94 1
@<TRIPOS>SUBSTRUCTURE
     1 ZMO         1 TEMP              0 ****  ****    0 ROOT
