@<TRIPOS>MOLECULE
ZMO
   95    87     1     0     0
SMALL
bcc


@<TRIPOS>ATOM
      1 O23       -28.8590 -341.6390  -27.6240 o         1 ZMO     -0.929000
      2 P24       -28.2960 -341.9920  -26.3400 p3        1 ZMO      2.467000
      3 O26       -28.6490 -342.3700  -25.0090 o         1 ZMO     -0.929000
      4 O27       -26.6390 -341.9250  -26.5090 os        1 ZMO     -0.551000
      5 C28       -26.2710 -341.2920  -27.5880 c1        1 ZMO     -0.046000
      6 C29       -24.8580 -341.1530  -27.9530 c3        1 ZMO     -0.175000
      7 C31       -22.5280 -339.9090  -32.0940 c1        1 ZMO     -0.041000
      8 C30       -23.9820 -342.3370  -27.5930 c3        1 ZMO     -0.214000
      9 C32       -24.7230 -340.8500  -29.4640 c3        1 ZMO      0.095000
     10 O33       -23.5210 -340.1710  -29.6140 oh        1 ZMO     -0.364000
     11 C34       -25.8460 -339.9570  -30.0330 c2        1 ZMO      0.197000
     12 O35       -25.6730 -338.9300  -30.6740 o         1 ZMO     -0.191000
     13 N36       -27.2610 -340.3730  -29.8140 n4        1 ZMO     -0.189000
     14 C37        15.3550  152.5420    5.9160 c2        1 ZMO     -0.064000
     15 C38        15.3380  151.2170    5.7430 c2        1 ZMO     -0.266000
     16 C39        14.5660  150.2950    6.5750 c2        1 ZMO      0.350000
     17 O40        14.0490  149.1480    6.1100 os        1 ZMO     -0.192000
     18 N41        14.3060  150.4830    7.8710 n3        1 ZMO     -0.283000
     19 C42        19.1140  145.7280    4.3030 c3        1 ZMO     -0.110000
     20 C43        19.3280  146.9570    3.6200 c1        1 ZMO     -0.806000
     21 S1         19.5240  148.1470    2.9570 ss        1 ZMO      1.107000
     22 C1         18.2910  149.4060    3.1060 c2        1 ZMO     -0.215000
     23 O1         17.2560  149.4380    3.7870 o         1 ZMO     -0.344000
     24 C2         12.3290  148.8160   10.2300 c3        1 ZMO     -0.219000
     25 C3         12.7410  147.3760   10.0760 c3        1 ZMO     -0.171000
     26 C4         13.7820  147.1970    8.9910 c3        1 ZMO     -0.162000
     27 C5         14.1730  145.7420    8.8440 c3        1 ZMO     -0.161000
     28 C6         15.1990  145.5500    7.7470 c3        1 ZMO     -0.157000
     29 C7         15.6200  144.0990    7.6460 c3        1 ZMO     -0.157000
     30 C8         16.6540  143.9100    6.5490 c3        1 ZMO     -0.052000
     31 C9         17.0950  142.5500    6.4540 c1        1 ZMO     -0.189000
     32 C10        17.4720  141.4180    6.3680 c1        1 ZMO     -0.190000
     33 C11        16.0810  143.8890    2.7090 c3        1 ZMO     -0.217000
     34 C12        15.0820  144.9660    2.3750 c3        1 ZMO     -0.159000
     35 C13        14.7220  145.7840    3.5980 c3        1 ZMO     -0.165000
     36 C14        13.6840  146.8340    3.2620 c3        1 ZMO     -0.159000
     37 C15        13.2820  147.6530    4.4720 c3        1 ZMO     -0.172000
     38 C16        14.2690  148.7810    4.7090 c3        1 ZMO     -0.021000
     39 H28       -27.3760 -336.9880  -30.5550 ha        1 ZMO      0.001500
     40 H28A      -27.6820 -337.4780  -30.2010 ha        1 ZMO      0.001500
     41 H31       -21.5410 -339.4300  -32.0710 ha        1 ZMO      0.068500
     42 H31A      -24.4630 -340.2450  -27.3900 hc        1 ZMO      0.189000
     43 H31B      -22.9100 -340.1050  -33.1030 ha        1 ZMO      0.068500
     44 H30       -24.0400 -342.5310  -26.4940 hc        1 ZMO      0.106333
     45 H30A      -22.9210 -342.1140  -27.8690 hc        1 ZMO      0.106333
     46 H30B      -24.3080 -343.2550  -28.1370 hc        1 ZMO      0.106333
     47 H32       -24.7540 -341.8090  -30.0570 h1        1 ZMO      0.107000
     48 HO33      -23.2430 -340.1420  -30.6000 ho        1 ZMO      0.298000
     49 HN36      -27.5250 -341.1180  -30.4560 hn        1 ZMO      0.273000
     50 H37        15.9500  153.1920    5.2520 ha        1 ZMO      0.151000
     51 H37A      -27.9020 -339.5870  -29.9420 hn        1 ZMO      0.273000
     52 H38        15.9220  150.7260    4.9330 ha        1 ZMO      0.219000
     53 H38A       14.7800  153.0740    6.6900 ha        1 ZMO      0.151000
     54 HN41       13.7850  149.7980    8.3950 hn        1 ZMO      0.284500
     55 H42        18.0870  145.6560    4.7510 hc        1 ZMO      0.098667
     56 H42A       15.3380  148.4510    4.6160 h1        1 ZMO      0.132000
     57 H43        19.8640  145.6130    5.1320 hc        1 ZMO      0.098667
     58 H43A       19.2530  144.8580    3.6060 hc        1 ZMO      0.098667
     59 H2         18.5300  150.2950    2.4680 h5        1 ZMO      0.079000
     60 H2A        11.5700  148.9150   11.0450 hc        1 ZMO      0.070667
     61 H3         13.2060  149.4560   10.4980 hc        1 ZMO      0.070667
     62 H3A        11.8730  149.2030    9.2850 hc        1 ZMO      0.070667
     63 H4         11.8390  146.7530    9.8330 hc        1 ZMO      0.098500
     64 H4A        13.1500  146.9960   11.0500 hc        1 ZMO      0.098500
     65 H5         13.3820  147.5780    8.0110 hc        1 ZMO      0.061000
     66 H5A        14.6940  147.8030    9.2400 hc        1 ZMO      0.061000
     67 H6         14.5880  145.3660    9.8160 hc        1 ZMO      0.093500
     68 H6A        13.2600  145.1290    8.6160 hc        1 ZMO      0.093500
     69 H7         14.7720  145.8870    6.7640 hc        1 ZMO      0.070000
     70 H7A        16.0980  146.1890    7.9560 hc        1 ZMO      0.070000
     71 H8         14.7240  143.4580    7.4340 hc        1 ZMO      0.095500
     72 H8A        16.0470  143.7610    8.6270 hc        1 ZMO      0.095500
     73 H9         17.5410  144.5750    6.7500 hc        1 ZMO      0.091500
     74 H10        16.2180  144.2310    5.5580 hc        1 ZMO      0.091500
     75 H11        16.3510  143.3140    1.7900 hc        1 ZMO      0.079000
     76 H11A       17.8050  140.4130    6.2930 ha        1 ZMO      0.229000
     77 H12        17.0150  144.3340    3.1350 hc        1 ZMO      0.079000
     78 H12A       15.6600  143.1770    3.4590 hc        1 ZMO      0.079000
     79 H13        15.5010  145.6410    1.5830 hc        1 ZMO      0.083500
     80 H13A       14.1530  144.4990    1.9510 hc        1 ZMO      0.083500
     81 H14        14.3250  145.1040    4.3990 hc        1 ZMO      0.080500
     82 H14A       15.6450  146.2710    4.0100 hc        1 ZMO      0.080500
     83 H15        14.0720  147.5080    2.4530 hc        1 ZMO      0.098000
     84 H15A       12.7670  146.3270    2.8580 hc        1 ZMO      0.098000
     85 H16A       12.2590  148.0860    4.3190 hc        1 ZMO      0.108000
     86 H16B       13.2340  146.9980    5.3850 hc        1 ZMO      0.108000
     87 C17        13.9360  151.7080    1.7260 c1        1 ZMO     -0.227500
     88 C18        14.8930  151.1420    2.1660 c1        1 ZMO     -0.227500
     89 H50        13.0880  152.2100    1.3270 ha        1 ZMO      0.227000
     90 H51        14.0680  149.6690    4.0550 h1        1 ZMO      0.132000
     91 H52        15.7580  150.6390    2.5310 ha        1 ZMO      0.227000
     92 H53        11.7640  149.0290    7.0610 ha        1 ZMO      0.001500
     93 H54        11.7120  148.5590    6.5750 ha        1 ZMO      0.001500
     94 H362      -27.3180 -340.7540  -28.7880 hn        1 ZMO      0.273000
     95 H412       14.6410  151.2950    8.3420 hn        1 ZMO      0.284500
@<TRIPOS>BOND
     1    1    2 1   
     2    2    3 1   
     3    2    4 1   
     4    4    5 1   
     5    5    6 1   
     6    6    8 1   
     7    6    9 1   
     8    6   42 1   
     9    7   41 1   
    10    7   43 1   
    11    8   44 1   
    12    8   45 1   
    13    8   46 1   
    14    9   10 1   
    15    9   11 1   
    16    9   47 1   
    17   10   48 1   
    18   11   12 1   
    19   11   13 1   
    20   13   49 1   
    21   13   51 1   
    22   13   94 1   
    23   14   15 1   
    24   14   50 1   
    25   14   53 1   
    26   15   16 1   
    27   15   52 1   
    28   16   17 1   
    29   16   18 1   
    30   17   38 1   
    31   18   54 1   
    32   18   95 1   
    33   19   20 1   
    34   19   55 1   
    35   19   57 1   
    36   19   58 1   
    37   20   21 1   
    38   21   22 1   
    39   22   23 1   
    40   22   59 1   
    41   24   25 1   
    42   24   60 1   
    43   24   61 1   
    44   24   62 1   
    45   25   26 1   
    46   25   63 1   
    47   25   64 1   
    48   26   27 1   
    49   26   65 1   
    50   26   66 1   
    51   27   28 1   
    52   27   67 1   
    53   27   68 1   
    54   28   29 1   
    55   28   69 1   
    56   28   70 1   
    57   29   30 1   
    58   29   71 1   
    59   29   72 1   
    60   30   31 1   
    61   30   73 1   
    62   30   74 1   
    63   31   32 1   
    64   32   76 1   
    65   33   34 1   
    66   33   75 1   
    67   33   77 1   
    68   33   78 1   
    69   34   35 1   
    70   34   79 1   
    71   34   80 1   
    72   35   36 1   
    73   35   81 1   
    74   35   82 1   
    75   36   37 1   
    76   36   83 1   
    77   36   84 1   
    78   37   38 1   
    79   37   85 1   
    80   37   86 1   
    81   38   56 1   
    82   38   90 1   
    83   39   40 1   
    84   87   88 1   
    85   87   89 1   
    86   88   91 1   
    87   92   93 1   
@<TRIPOS>SUBSTRUCTURE
     1 ZMO         1 TEMP              0 ****  ****    0 ROOT
