@<TRIPOS>MOLECULE
molecule
   84    83     1     0     0
SMALL
bcc


@<TRIPOS>ATOM
      1 O7           0.0000     0.0000     0.0000 o          1 ZMP      -0.909833
      2 P1           1.6100     0.0000     0.0000 p5         1 ZMP       1.179900
      3 O6           2.1020     0.0000     1.3960 o          1 ZMP      -0.909833
      4 O5           2.1470    -1.3140    -0.7590 os         1 ZMP      -0.585200
      5 C21          1.9290    -2.6390    -0.2690 c3         1 ZMP       0.229400
      6 C18          2.5680    -3.6470    -1.2270 c3         1 ZMP      -0.070000
      7 C19          1.9370    -3.5050    -2.6130 c3         1 ZMP      -0.066600
      8 C20          4.0710    -3.3800    -1.3210 c3         1 ZMP      -0.066600
      9 C17          2.3340    -5.0650    -0.7030 c3         1 ZMP       0.089100
     10 O4           0.9360    -5.3600    -0.7330 oh         1 ZMP      -0.550800
     11 C16          2.8390    -5.1670     0.7130 c          1 ZMP       0.642100
     12 O3           2.0520    -5.2130     1.6350 o          1 ZMP      -0.579100
     13 N2           4.1640    -5.2090     0.9550 ns         1 ZMP      -0.603900
     14 C15          4.6530    -5.4170     2.3200 c3         1 ZMP       0.130000
     15 C14          6.1830    -5.4220     2.3190 c3         1 ZMP      -0.174400
     16 C13          6.6870    -5.6370     3.7230 c          1 ZMP       0.664100
     17 O2           5.8990    -5.7710     4.6360 o          1 ZMP      -0.592100
     18 N1           8.0120    -5.6770     3.9650 ns         1 ZMP      -0.598900
     19 C12          8.5000    -5.8850     5.3300 c3         1 ZMP       0.127000
     20 C11         10.0310    -5.8900     5.3280 c3         1 ZMP      -0.010300
     21 S1          10.6350    -6.1480     7.0150 ss         1 ZMP      -0.252700
     22 C10         12.3240    -6.1110     6.7340 c          1 ZMP       0.563700
     23 O1          12.7490    -5.9420     5.6100 o          1 ZMP      -0.538100
     24 C9          13.2830    -6.2880     7.8830 c3         1 ZMP      -0.164400
     25 C8          14.7200    -6.2150     7.3640 c3         1 ZMP      -0.071400
     26 C7          15.6930    -6.3950     8.5310 c3         1 ZMP      -0.083400
     27 C6          17.1300    -6.3210     8.0110 c3         1 ZMP      -0.080400
     28 C5          18.1040    -6.5010     9.1790 c3         1 ZMP      -0.082400
     29 C4          19.5420    -6.4280     8.6600 c3         1 ZMP      -0.082400
     30 C3          20.5150    -6.6080     9.8250 c3         1 ZMP      -0.081400
     31 C2          21.9520    -6.5340     9.3070 c3         1 ZMP      -0.081400
     32 C1          22.9250    -6.7140    10.4730 c3         1 ZMP      -0.082400
     33 C22         24.3630    -6.6400     9.9540 c3         1 ZMP      -0.082400
     34 C23         25.3360    -6.8200    11.1210 c3         1 ZMP      -0.081400
     35 C24         26.7740    -6.7470    10.6020 c3         1 ZMP      -0.084400
     36 C25         27.7470    -6.9270    11.7690 c3         1 ZMP      -0.092100
     37 H3           0.8650    -2.8290    -0.2020 h1         1 ZMP       0.031200
     38 H4           2.3760    -2.7390     0.7120 h1         1 ZMP       0.031200
     39 H5           0.8570    -3.5140    -2.5210 hc         1 ZMP       0.028367
     40 H6           2.2520    -4.3300    -3.2400 hc         1 ZMP       0.028367
     41 H7           2.2540    -2.5710    -3.0600 hc         1 ZMP       0.028367
     42 H8           4.4330    -3.0100    -0.3690 hc         1 ZMP       0.028367
     43 H9           4.5860    -4.2990    -1.5710 hc         1 ZMP       0.028367
     44 H10          4.2580    -2.6400    -2.0900 hc         1 ZMP       0.028367
     45 H11          2.8660    -5.7730    -1.3270 h1         1 ZMP       0.005700
     46 H12          0.8130    -6.2840    -0.8750 ho         1 ZMP       0.372000
     47 H13          4.8120    -5.1510     0.1950 hn         1 ZMP       0.307500
     48 H14          4.2900    -6.3670     2.6940 h1         1 ZMP       0.068700
     49 H15          4.2960    -4.6180     2.9580 h1         1 ZMP       0.068700
     50 H16          6.5400    -6.2210     1.6810 hc         1 ZMP       0.062700
     51 H17          6.5460    -4.4720     1.9460 hc         1 ZMP       0.062700
     52 H18          8.6620    -5.5660     3.2120 hn         1 ZMP       0.312500
     53 H19          8.1360    -6.8340     5.7040 h1         1 ZMP       0.063700
     54 H20          8.1430    -5.0850     5.9670 h1         1 ZMP       0.063700
     55 H21         10.3950    -4.9410     4.9550 h1         1 ZMP       0.078700
     56 H22         10.3890    -6.6900     4.6900 h1         1 ZMP       0.078700
     57 H23         13.1150    -7.2530     8.3480 hc         1 ZMP       0.070700
     58 H24         13.1220    -5.5040     8.6130 hc         1 ZMP       0.070700
     59 H25         14.8870    -5.2510     6.8990 hc         1 ZMP       0.056700
     60 H26         14.8810    -7.0000     6.6350 hc         1 ZMP       0.056700
     61 H27         15.5260    -7.3600     8.9950 hc         1 ZMP       0.039700
     62 H28         15.5320    -5.6100     9.2610 hc         1 ZMP       0.039700
     63 H29         17.2970    -5.3560     7.5470 hc         1 ZMP       0.043700
     64 H30         17.2920    -7.1050     7.2820 hc         1 ZMP       0.043700
     65 H31         17.9430    -5.7160     9.9080 hc         1 ZMP       0.040200
     66 H32         17.9370    -7.4650     9.6430 hc         1 ZMP       0.040200
     67 H33         19.7090    -5.4630     8.1950 hc         1 ZMP       0.041700
     68 H34         19.7030    -7.2120     7.9300 hc         1 ZMP       0.041700
     69 H35         20.3540    -5.8230    10.5550 hc         1 ZMP       0.040200
     70 H36         20.3470    -7.5720    10.2900 hc         1 ZMP       0.040200
     71 H37         22.1140    -7.3190     8.5780 hc         1 ZMP       0.041200
     72 H38         22.1200    -5.5700     8.8430 hc         1 ZMP       0.041200
     73 H39         22.7580    -7.6790    10.9370 hc         1 ZMP       0.040200
     74 H40         22.7640    -5.9300    11.2030 hc         1 ZMP       0.040200
     75 H41         24.5300    -5.6760     9.4900 hc         1 ZMP       0.041200
     76 H42         24.5250    -7.4250     9.2250 hc         1 ZMP       0.041200
     77 H43         25.1750    -6.0350    11.8500 hc         1 ZMP       0.040200
     78 H44         25.1690    -7.7840    11.5850 hc         1 ZMP       0.040200
     79 H45         26.9410    -5.7820    10.1370 hc         1 ZMP       0.040200
     80 H46         26.9350    -7.5320     9.8730 hc         1 ZMP       0.040200
     81 H47         28.7650    -6.8690    11.4020 hc         1 ZMP       0.031367
     82 H48         27.5820    -6.1450    12.5010 hc         1 ZMP       0.031367
     83 H49         27.5840    -7.8930    12.2300 hc         1 ZMP       0.031367
     84 O8           2.1460     1.3180    -0.7530 o          1 ZMP      -0.909833
@<TRIPOS>BOND
     1    36    35 1
     2     1     2 1
     3    34    35 1
     4    34    33 1
     5     2     3 1
     6     2     4 1
     7    32    33 1
     8    32    31 1
     9     8     6 1
    10     7     6 1
    11     4     5 1
    12     5     6 1
    13    31    30 1
    14    30    29 1
    15     6     9 1
    16    29    28 1
    17    23    22 2
    18    24    25 1
    19    24    22 1
    20    27    28 1
    21    27    26 1
    22    25    26 1
    23     9    11 1
    24     9    10 1
    25    22    21 1
    26    12    11 2
    27    11    13 1
    28    19    18 1
    29    19    20 1
    30    18    16 1
    31    16    17 2
    32    16    15 1
    33    15    14 1
    34    13    14 1
    35    21    20 1
    36     5    37 1
    37     5    38 1
    38     7    39 1
    39     7    40 1
    40     7    41 1
    41     8    42 1
    42     8    43 1
    43     8    44 1
    44     9    45 1
    45    10    46 1
    46    13    47 1
    47    14    48 1
    48    14    49 1
    49    15    50 1
    50    15    51 1
    51    18    52 1
    52    19    53 1
    53    19    54 1
    54    20    55 1
    55    20    56 1
    56    24    57 1
    57    24    58 1
    58    25    59 1
    59    25    60 1
    60    26    61 1
    61    26    62 1
    62    27    63 1
    63    27    64 1
    64    28    65 1
    65    28    66 1
    66    29    67 1
    67    29    68 1
    68    30    69 1
    69    30    70 1
    70    31    71 1
    71    31    72 1
    72    32    73 1
    73    32    74 1
    74    33    75 1
    75    33    76 1
    76    34    77 1
    77    34    78 1
    78    35    79 1
    79    35    80 1
    80    36    81 1
    81    36    82 1
    82    36    83 1
    83     2    84 1
@<TRIPOS>SUBSTRUCTURE
     1 ZMP         1 TEMP              0 ****  ****    0 ROOT
