@<TRIPOS>MOLECULE
ZMP
   85    84     1     0     0
SMALL
bcc


@<TRIPOS>ATOM
      1 O7          0.9880    5.4700   -2.8640 o         1 ZMP     -0.710500
      2 P1          2.3490    5.0870   -3.0870 p4        1 ZMP      1.690200
      3 O6          3.5430    5.7480   -2.5490 o         1 ZMP     -0.759300
      4 O5          2.7460    3.8840   -4.0220 os        1 ZMP     -0.544200
      5 C21         3.9740    3.1980   -3.8450 c3        1 ZMP      0.179400
      6 C18         4.9130    3.3370   -5.0560 c3        1 ZMP     -0.086000
      7 C19         5.3230    1.9270   -5.4920 c3        1 ZMP     -0.110100
      8 C20         4.2500    4.0150   -6.2430 c3        1 ZMP     -0.110100
      9 C17         6.2180    4.0820   -4.6740 c3        1 ZMP      0.087100
     10 O4          6.9260    3.3970   -3.6550 oh        1 ZMP     -0.637800
     11 C16         5.9860    5.5110   -4.1810 c         1 ZMP      0.554100
     12 O3          5.5200    6.4280   -4.8380 o         1 ZMP     -0.425100
     13 N2          6.4030    5.8290   -2.7640 n4        1 ZMP     -0.669800
     14 C15         6.6040    7.2780   -2.4790 c3        1 ZMP      0.126800
     15 C14         5.3130    8.0490   -2.2340 c3        1 ZMP     -0.173400
     16 C13         4.5850    7.5420   -1.0220 c         1 ZMP      0.590100
     17 O2          4.9020    6.5900   -0.3190 o         1 ZMP     -0.453100
     18 N1          3.3360    8.2900   -0.6520 n4        1 ZMP     -0.673800
     19 C12         3.4570    8.9540    0.6910 c3        1 ZMP      0.129800
     20 C11         2.4420   10.0610    0.8990 c3        1 ZMP     -0.110300
     21 S1          3.0080   11.7090    0.6480 ss        1 ZMP     -0.086700
     22 C10         3.7910   11.7820   -0.8700 c         1 ZMP      0.578700
     23 O1          4.0400   10.8110   -1.6130 o         1 ZMP     -0.664100
     24 C9          4.1940   13.1880   -1.1800 c3        1 ZMP     -0.171400
     25 C8          3.5220   13.6840   -2.4490 c3        1 ZMP     -0.070400
     26 C7          4.0170   15.0710   -2.8010 c3        1 ZMP     -0.081400
     27 C6          3.3420   15.5820   -4.0570 c3        1 ZMP     -0.078400
     28 C5          3.8400   16.9660   -4.4180 c3        1 ZMP     -0.080400
     29 C4          3.1660   17.4790   -5.6720 c3        1 ZMP     -0.078400
     30 C3          3.6660   18.8610   -6.0350 c3        1 ZMP     -0.079400
     31 C2          2.9920   19.3760   -7.2890 c3        1 ZMP     -0.078400
     32 C1          3.4920   20.7580   -7.6520 c3        1 ZMP     -0.079400
     33 C22         2.8190   21.2730   -8.9060 c3        1 ZMP     -0.078400
     34 C23         3.3190   22.6550   -9.2690 c3        1 ZMP     -0.079400
     35 C24         2.6470   23.1720  -10.5230 c3        1 ZMP     -0.079400
     36 C25         3.1420   24.5470  -10.8890 c3        1 ZMP     -0.094100
     37 H21         3.6870    2.1110   -3.7160 h1        1 ZMP      0.071700
     38 H21A        4.4730    3.5730   -2.9090 h1        1 ZMP      0.071700
     39 H19         4.4390    1.4000   -5.9290 hc        1 ZMP      0.069700
     40 H19A        6.1200    1.9760   -6.2730 hc        1 ZMP      0.069700
     41 H19B        5.6960    1.3290   -4.6250 hc        1 ZMP      0.069700
     42 H20         4.8690    3.8700   -7.1640 hc        1 ZMP      0.069700
     43 H20A        3.2440    3.5580   -6.4210 hc        1 ZMP      0.069700
     44 H20B        4.1210    5.1100   -6.0790 hc        1 ZMP      0.069700
     45 H17         6.8550    4.1850   -5.6070 h1        1 ZMP      0.125700
     46 HO4         7.3320    2.6100   -4.0510 ho        1 ZMP      0.478000
     47 HN2         5.6630    5.4540   -2.1400 hn        1 ZMP      0.491800
     48 H15         7.1310    7.7470   -3.3640 hx        1 ZMP      0.128200
     49 H15A        7.2740    7.3490   -1.5720 hx        1 ZMP      0.128200
     50 H14         5.5670    9.1450   -2.1090 hc        1 ZMP      0.151200
     51 H14A        4.6300    7.9650   -3.1300 hc        1 ZMP      0.151200
     52 HN1         3.1510    9.0170   -1.3690 hn        1 ZMP      0.478800
     53 H12         3.3300    8.1480    1.4730 hx        1 ZMP      0.118700
     54 H12A        4.5040    9.3700    0.7750 hx        1 ZMP      0.118700
     55 H11         1.4990    9.8800    0.3210 h1        1 ZMP      0.129200
     56 H11A        2.1430   10.0590    1.9890 h1        1 ZMP      0.129200
     57 H9          3.9340   13.8670   -0.3210 hc        1 ZMP      0.095700
     58 H9A         5.3120   13.2160   -1.3120 hc        1 ZMP      0.095700
     59 H8          2.4100   13.7070   -2.3050 hc        1 ZMP      0.053700
     60 H8A         3.7420   12.9750   -3.2890 hc        1 ZMP      0.053700
     61 H7          5.1290   15.0490   -2.9540 hc        1 ZMP      0.050700
     62 H7A         3.8120   15.7740   -1.9510 hc        1 ZMP      0.050700
     63 H6          3.5410   14.8770   -4.9060 hc        1 ZMP      0.042200
     64 H6A         2.2310   15.6120   -3.9020 hc        1 ZMP      0.042200
     65 H5          4.9510   16.9380   -4.5720 hc        1 ZMP      0.045200
     66 H5A         3.6410   17.6710   -3.5680 hc        1 ZMP      0.045200
     67 H4          2.0550   17.5100   -5.5170 hc        1 ZMP      0.040200
     68 H4A         3.3630   16.7740   -6.5220 hc        1 ZMP      0.040200
     69 H3          4.7770   18.8320   -6.1890 hc        1 ZMP      0.042200
     70 H3A         3.4690   19.5680   -5.1850 hc        1 ZMP      0.042200
     71 H2          3.1880   18.6700   -8.1380 hc        1 ZMP      0.040200
     72 H2A         1.8810   19.4070   -7.1340 hc        1 ZMP      0.040200
     73 H1          4.6030   20.7280   -7.8070 hc        1 ZMP      0.041700
     74 H1A         3.2960   21.4640   -6.8030 hc        1 ZMP      0.041700
     75 H22         1.7080   21.3040   -8.7510 hc        1 ZMP      0.039700
     76 H22A        3.0140   20.5670   -9.7560 hc        1 ZMP      0.039700
     77 H23         3.1230   23.3610   -8.4200 hc        1 ZMP      0.040700
     78 H23A        4.4300   22.6240   -9.4250 hc        1 ZMP      0.040700
     79 H24         2.8420   22.4630  -11.3710 hc        1 ZMP      0.038700
     80 H24A        1.5360   23.2000  -10.3670 hc        1 ZMP      0.038700
     81 H25         2.6340   24.9090  -11.8150 hc        1 ZMP      0.035367
     82 H25A        2.9330   25.2730  -10.0660 hc        1 ZMP      0.035367
     83 H25B        4.2430   24.5340  -11.0730 hc        1 ZMP      0.035367
     84 H221        7.2760    5.3140   -2.5670 hn        1 ZMP      0.491800
     85 H121        2.5440    7.6360   -0.6320 hn        1 ZMP      0.478800
@<TRIPOS>BOND
     1    1    2 1   
     2    2    3 2   
     3    2    4 1   
     4    4    5 1   
     5    5    6 1   
     6    5   37 1   
     7    5   38 1   
     8    6    7 1   
     9    6    8 1   
    10    6    9 1   
    11    7   39 1   
    12    7   40 1   
    13    7   41 1   
    14    8   42 1   
    15    8   43 1   
    16    8   44 1   
    17    9   10 1   
    18    9   11 1   
    19    9   45 1   
    20   10   46 1   
    21   11   12 2   
    22   11   13 1   
    23   13   14 1   
    24   13   47 1   
    25   13   84 1   
    26   14   15 1   
    27   14   48 1   
    28   14   49 1   
    29   15   16 1   
    30   15   50 1   
    31   15   51 1   
    32   16   17 2   
    33   16   18 1   
    34   18   19 1   
    35   18   52 1   
    36   18   85 1   
    37   19   20 1   
    38   19   53 1   
    39   19   54 1   
    40   20   21 1   
    41   20   55 1   
    42   20   56 1   
    43   21   22 1   
    44   22   23 2   
    45   22   24 1   
    46   24   25 1   
    47   24   57 1   
    48   24   58 1   
    49   25   26 1   
    50   25   59 1   
    51   25   60 1   
    52   26   27 1   
    53   26   61 1   
    54   26   62 1   
    55   27   28 1   
    56   27   63 1   
    57   27   64 1   
    58   28   29 1   
    59   28   65 1   
    60   28   66 1   
    61   29   30 1   
    62   29   67 1   
    63   29   68 1   
    64   30   31 1   
    65   30   69 1   
    66   30   70 1   
    67   31   32 1   
    68   31   71 1   
    69   31   72 1   
    70   32   33 1   
    71   32   73 1   
    72   32   74 1   
    73   33   34 1   
    74   33   75 1   
    75   33   76 1   
    76   34   35 1   
    77   34   77 1   
    78   34   78 1   
    79   35   36 1   
    80   35   79 1   
    81   35   80 1   
    82   36   81 1   
    83   36   82 1   
    84   36   83 1   
@<TRIPOS>SUBSTRUCTURE
     1 ZMP         1 TEMP              0 ****  ****    0 ROOT
