@<TRIPOS>MOLECULE
molecule
   88    87     1     0     0
SMALL
bcc


@<TRIPOS>ATOM
      1 O23          0.0000     0.0000     0.0000 o          1 ZMQ      -0.838167
      2 P24          1.6100     0.0000     0.0000 p5         1 ZMQ       1.198900
      3 O26          2.1030     0.0000     1.3960 o          1 ZMQ      -0.838167
      4 O27          2.1460    -1.3150    -0.7580 os         1 ZMQ      -0.591200
      5 C28          3.5310    -1.6590    -0.8350 c3         1 ZMQ       0.228400
      6 C29          3.6920    -2.9600    -1.6220 c3         1 ZMQ      -0.070000
      7 C31          2.9270    -4.0810    -0.9140 c3         1 ZMQ      -0.068100
      8 C30          3.1320    -2.7750    -3.0340 c3         1 ZMQ      -0.068100
      9 C32          5.1740    -3.3280    -1.7040 c3         1 ZMQ       0.088100
     10 O33          5.6650    -3.6230    -0.3950 oh         1 ZMQ      -0.553800
     11 C34          5.9470    -2.1700    -2.2800 c          1 ZMQ       0.641100
     12 O35          6.6160    -1.4660    -1.5550 o          1 ZMQ      -0.574100
     13 N36          5.8950    -1.9160    -3.6040 ns         1 ZMQ      -0.604900
     14 C37          6.7330    -0.8620    -4.1800 c3         1 ZMQ       0.130000
     15 C38          6.4820    -0.7810    -5.6890 c3         1 ZMQ      -0.175400
     16 C39          7.3440     0.3030    -6.2820 c          1 ZMQ       0.664100
     17 O40          8.0840     0.9480    -5.5710 o          1 ZMQ      -0.592100
     18 N41          7.2920     0.5570    -7.6050 ns         1 ZMQ      -0.597900
     19 C42          8.1290     1.6110    -8.1830 c3         1 ZMQ       0.126000
     20 C43          7.8790     1.6930    -9.6900 c3         1 ZMQ      -0.010300
     21 S1           8.9140     2.9950   -10.4040 ss         1 ZMQ      -0.256700
     22 C1           8.4510     2.8750   -12.0480 c          1 ZMQ       0.565700
     23 O1           7.6270     2.0510   -12.3870 o          1 ZMQ      -0.537100
     24 C2           9.0680     3.7920   -13.0720 c3         1 ZMQ      -0.163400
     25 C3           8.4860     3.4780   -14.4520 c3         1 ZMQ      -0.071400
     26 C4           9.1110     4.4090   -15.4930 c3         1 ZMQ      -0.084400
     27 C5           8.5300     4.0960   -16.8730 c3         1 ZMQ      -0.078400
     28 C6           9.1550     5.0260   -17.9140 c3         1 ZMQ      -0.091400
     29 C7           8.5740     4.7140   -19.2930 c3         1 ZMQ      -0.093400
     30 C8           9.1990     5.6450   -20.3340 c3         1 ZMQ       0.061800
     31 C9           8.6260     5.3360   -21.6930 c2         1 ZMQ      -0.270200
     32 C10          8.1100     6.2960   -22.4200 c2         1 ZMQ      -0.280200
     33 C11          8.2320     7.7290   -21.9710 c3         1 ZMQ       0.057800
     34 C12          8.8210     8.5710   -23.1050 c3         1 ZMQ      -0.093400
     35 C13          8.9450    10.0260   -22.6490 c3         1 ZMQ      -0.091400
     36 C14          9.5350    10.8680   -23.7830 c3         1 ZMQ      -0.080400
     37 C15          9.6580    12.3230   -23.3270 c3         1 ZMQ      -0.085400
     38 C16         10.2470    13.1640   -24.4600 c3         1 ZMQ      -0.092100
     39 H28          3.9270    -1.7900     0.1650 h1         1 ZMQ       0.035200
     40 H28A         4.0730    -0.8650    -1.3360 h1         1 ZMQ       0.035200
     41 H31          1.8620    -3.9310    -1.0460 hc         1 ZMQ       0.030200
     42 H31A         3.1650    -4.0700     0.1430 hc         1 ZMQ       0.030200
     43 H31B         3.2120    -5.0370    -1.3380 hc         1 ZMQ       0.030200
     44 H30          3.2700    -1.7470    -3.3450 hc         1 ZMQ       0.030200
     45 H30A         3.6550    -3.4320    -3.7180 hc         1 ZMQ       0.030200
     46 H30B         2.0760    -3.0160    -3.0380 hc         1 ZMQ       0.030200
     47 H32          5.2970    -4.1960    -2.3400 h1         1 ZMQ       0.011700
     48 HO33         6.3020    -4.3170    -0.4480 ho         1 ZMQ       0.377000
     49 HN36         5.3260    -2.4850    -4.2000 hn         1 ZMQ       0.306500
     50 H37          6.4850     0.0880    -3.7220 h1         1 ZMQ       0.069200
     51 H37A         7.7760    -1.0900    -3.9990 h1         1 ZMQ       0.069200
     52 H38          5.4390    -0.5530    -5.8700 hc         1 ZMQ       0.062200
     53 H38A         6.7300    -1.7310    -6.1470 hc         1 ZMQ       0.062200
     54 HN41         6.6740     0.0320    -8.1920 hn         1 ZMQ       0.312500
     55 H42          9.1720     1.3830    -8.0010 h1         1 ZMQ       0.063700
     56 H42A         7.8810     2.5610    -7.7240 h1         1 ZMQ       0.063700
     57 H43          8.1270     0.7430   -10.1490 h1         1 ZMQ       0.078700
     58 H43A         6.8360     1.9200    -9.8720 h1         1 ZMQ       0.078700
     59 H2          10.1410     3.6440   -13.0900 hc         1 ZMQ       0.071200
     60 H2A          8.8500     4.8210   -12.8140 hc         1 ZMQ       0.071200
     61 H3           8.7050     2.4490   -14.7100 hc         1 ZMQ       0.056200
     62 H3A          7.4130     3.6260   -14.4340 hc         1 ZMQ       0.056200
     63 H4          10.1840     4.2610   -15.5120 hc         1 ZMQ       0.038700
     64 H4A          8.8930     5.4380   -15.2350 hc         1 ZMQ       0.038700
     65 H5           7.4570     4.2440   -16.8540 hc         1 ZMQ       0.044200
     66 H5A          8.7490     3.0670   -17.1310 hc         1 ZMQ       0.044200
     67 H6           8.9380     6.0560   -17.6550 hc         1 ZMQ       0.035200
     68 H6A         10.2280     4.8780   -17.9330 hc         1 ZMQ       0.035200
     69 H7           7.5010     4.8620   -19.2740 hc         1 ZMQ       0.050700
     70 H7A          8.7910     3.6850   -19.5520 hc         1 ZMQ       0.050700
     71 H8           8.9810     6.6740   -20.0750 hc         1 ZMQ       0.027200
     72 H8A         10.2710     5.4960   -20.3530 hc         1 ZMQ       0.027200
     73 H9           9.6390     5.7050   -21.5810 ha         1 ZMQ       0.047000
     74 H10          7.4120     6.7220   -21.7110 ha         1 ZMQ       0.053000
     75 H11          7.2520     8.1100   -21.7100 hc         1 ZMQ       0.028700
     76 H11A         8.8820     7.7830   -21.1060 hc         1 ZMQ       0.028700
     77 H12          9.8010     8.1890   -23.3660 hc         1 ZMQ       0.048200
     78 H12A         8.1710     8.5170   -23.9700 hc         1 ZMQ       0.048200
     79 H13          7.9650    10.4070   -22.3890 hc         1 ZMQ       0.036700
     80 H13A         9.5940    10.0790   -21.7840 hc         1 ZMQ       0.036700
     81 H14          8.8850    10.8140   -24.6480 hc         1 ZMQ       0.040200
     82 H14A        10.5150    10.4870   -24.0430 hc         1 ZMQ       0.040200
     83 H15          8.6780    12.7040   -23.0660 hc         1 ZMQ       0.038700
     84 H15A        10.3080    12.3760   -22.4620 hc         1 ZMQ       0.038700
     85 H16          9.5830    13.1340   -25.3150 hc         1 ZMQ       0.030033
     86 H16A        11.2150    12.7650   -24.7410 hc         1 ZMQ       0.030033
     87 H16B        10.3620    14.1880   -24.1280 hc         1 ZMQ       0.030033
     88 O28          2.1470     1.3170    -0.7540 o          1 ZMQ      -0.838167
@<TRIPOS>BOND
     1     1     2 1
     2     2     3 1
     3     2     4 1
     4     4     5 1
     5     5     6 1
     6     6     7 1
     7     6     8 1
     8     6     9 1
     9     9    10 1
    10     9    11 1
    11    11    12 2
    12    11    13 1
    13    13    14 1
    14    14    15 1
    15    15    16 1
    16    16    17 2
    17    16    18 1
    18    18    19 1
    19    19    20 1
    20    20    21 1
    21    21    22 1
    22    22    23 2
    23    22    24 1
    24    24    25 1
    25    25    26 1
    26    26    27 1
    27    27    28 1
    28    28    29 1
    29    29    30 1
    30    30    31 1
    31    31    32 2
    32    32    33 1
    33    33    34 1
    34    34    35 1
    35    35    36 1
    36    36    37 1
    37    37    38 1
    38     5    39 1
    39     5    40 1
    40     7    41 1
    41     7    42 1
    42     7    43 1
    43     8    44 1
    44     8    45 1
    45     8    46 1
    46     9    47 1
    47    10    48 1
    48    13    49 1
    49    14    50 1
    50    14    51 1
    51    15    52 1
    52    15    53 1
    53    18    54 1
    54    19    55 1
    55    19    56 1
    56    20    57 1
    57    20    58 1
    58    24    59 1
    59    24    60 1
    60    25    61 1
    61    25    62 1
    62    26    63 1
    63    26    64 1
    64    27    65 1
    65    27    66 1
    66    28    67 1
    67    28    68 1
    68    29    69 1
    69    29    70 1
    70    30    71 1
    71    30    72 1
    72    31    73 1
    73    32    74 1
    74    33    75 1
    75    33    76 1
    76    34    77 1
    77    34    78 1
    78    35    79 1
    79    35    80 1
    80    36    81 1
    81    36    82 1
    82    37    83 1
    83    37    84 1
    84    38    85 1
    85    38    86 1
    86    38    87 1
    87     2    88 1
@<TRIPOS>SUBSTRUCTURE
     1 ZMQ         1 TEMP              0 ****  ****    0 ROOT
