@<TRIPOS>MOLECULE
ZMQ
   89    88     1     0     0
SMALL
bcc


@<TRIPOS>ATOM
      1 O23         4.4710    9.1080   -7.6090 o         1 ZMQ     -0.691500
      2 P24         4.6480    7.9900   -6.7350 p4        1 ZMQ      1.691200
      3 O26         4.5450    7.7750   -5.2930 o         1 ZMQ     -0.740300
      4 O27         5.0980    6.6030   -7.3660 os        1 ZMQ     -0.545200
      5 C28         4.9130    5.4010   -6.6510 c3        1 ZMQ      0.180400
      6 C29         6.2230    4.8380   -6.0580 c3        1 ZMQ     -0.101000
      7 C31         6.5860    3.5570   -6.8060 c3        1 ZMQ     -0.102600
      8 C30         7.3730    5.8200   -6.1880 c3        1 ZMQ     -0.102600
      9 C32         6.0280    4.4510   -4.5680 c3        1 ZMQ      0.092100
     10 O33         4.7290    3.9540   -4.2930 oh        1 ZMQ     -0.633800
     11 C34         6.2750    5.6180   -3.6160 c         1 ZMQ      0.563100
     12 O35         7.3620    6.0100   -3.2260 o         1 ZMQ     -0.405100
     13 N36         5.0730    6.3730   -3.0830 n4        1 ZMQ     -0.662800
     14 C37         4.9400    6.2330   -1.6120 c3        1 ZMQ      0.109800
     15 C38         3.9250    7.2080   -1.0090 c3        1 ZMQ     -0.188400
     16 C39         3.8090    6.9440    0.4680 c         1 ZMQ      0.550100
     17 O40         4.2930    6.0090    1.0870 o         1 ZMQ     -0.392100
     18 N41         2.9990    7.9430    1.2480 n4        1 ZMQ     -0.681800
     19 C42         3.8140    8.6000    2.3280 c3        1 ZMQ      0.129800
     20 C43         3.1970    9.8900    2.8300 c3        1 ZMQ     -0.113300
     21 S1          3.8340   11.3900    2.1660 ss        1 ZMQ     -0.075700
     22 C1          3.8560   11.2650    0.4640 c         1 ZMQ      0.575700
     23 O1          3.5960   10.2440   -0.2050 o         1 ZMQ     -0.671100
     24 C2          4.2860   12.5620   -0.1450 c3        1 ZMQ     -0.171400
     25 C3          3.2010   13.1340   -1.0410 c3        1 ZMQ     -0.070400
     26 C4          3.6880   14.3960   -1.7230 c3        1 ZMQ     -0.081400
     27 C5          2.6110   14.9760   -2.6150 c3        1 ZMQ     -0.078400
     28 C6          3.0940   16.2360   -3.3030 c3        1 ZMQ     -0.080400
     29 C7          2.0210   16.8110   -4.2020 c3        1 ZMQ     -0.076400
     30 C8          2.5040   18.0730   -4.8890 c3        1 ZMQ     -0.044200
     31 C9          1.4720   18.6520   -5.7800 c2        1 ZMQ     -0.194200
     32 C10         1.6350   19.7940   -6.4570 c2        1 ZMQ     -0.152200
     33 C11         2.8620   20.6220   -6.3960 c3        1 ZMQ     -0.052200
     34 C12         2.7960   21.8190   -7.3220 c3        1 ZMQ     -0.078400
     35 C13         4.0620   22.6440   -7.2400 c3        1 ZMQ     -0.078400
     36 C14         3.9970   23.8410   -8.1640 c3        1 ZMQ     -0.080400
     37 C15         5.2620   24.6680   -8.0840 c3        1 ZMQ     -0.079400
     38 C16         5.2020   25.8610   -9.0020 c3        1 ZMQ     -0.094100
     39 H28         4.4990    4.6690   -7.4060 h1        1 ZMQ      0.068700
     40 H28A        4.1510    5.5720   -5.8400 h1        1 ZMQ      0.068700
     41 H31         5.8010    2.7760   -6.6610 hc        1 ZMQ      0.063867
     42 H31A        7.5660    3.1590   -6.4480 hc        1 ZMQ      0.063867
     43 H31B        6.6750    3.7730   -7.9000 hc        1 ZMQ      0.063867
     44 H30         7.0430    6.8330   -5.8420 hc        1 ZMQ      0.063867
     45 H30A        7.6830    5.9010   -7.2600 hc        1 ZMQ      0.063867
     46 H30B        8.2540    5.4910   -5.5860 hc        1 ZMQ      0.063867
     47 H32         6.8060    3.6730   -4.2880 h1        1 ZMQ      0.124700
     48 HO33        4.6070    3.1530   -4.8270 ho        1 ZMQ      0.471000
     49 HN36        5.1770    7.3730   -3.3450 hn        1 ZMQ      0.491300
     50 H37         5.9570    6.4150   -1.1500 hx        1 ZMQ      0.128700
     51 H37A        4.6350    5.1680   -1.3830 hx        1 ZMQ      0.128700
     52 H38         2.9100    7.0740   -1.4790 hc        1 ZMQ      0.136200
     53 H38A        4.2390    8.2810   -1.1850 hc        1 ZMQ      0.136200
     54 HN41        2.6440    8.6770    0.6050 hn        1 ZMQ      0.480800
     55 H42         4.8430    8.8010    1.9090 hx        1 ZMQ      0.122200
     56 H42A        3.9130    7.8530    3.1710 hx        1 ZMQ      0.122200
     57 H43         2.0780    9.8760    2.7590 h1        1 ZMQ      0.131700
     58 H43A        3.4350    9.9810    3.9320 h1        1 ZMQ      0.131700
     59 H2          5.2170   12.3800   -0.7500 hc        1 ZMQ      0.095700
     60 H2A         4.5440   13.3050    0.6610 hc        1 ZMQ      0.095700
     61 H3          2.9120   12.3710   -1.8100 hc        1 ZMQ      0.053200
     62 H3A         2.2880   13.3660   -0.4310 hc        1 ZMQ      0.053200
     63 H4          4.6020   14.1680   -2.3340 hc        1 ZMQ      0.050700
     64 H4A         3.9850   15.1540   -0.9500 hc        1 ZMQ      0.050700
     65 H5          2.3110   14.2190   -3.3860 hc        1 ZMQ      0.042700
     66 H5A         1.7000   15.2090   -2.0040 hc        1 ZMQ      0.042700
     67 H6          3.3870   16.9970   -2.5320 hc        1 ZMQ      0.044700
     68 H6A         4.0110   16.0080   -3.9090 hc        1 ZMQ      0.044700
     69 H7          1.1050   17.0400   -3.5970 hc        1 ZMQ      0.042700
     70 H7A         1.7280   16.0510   -4.9740 hc        1 ZMQ      0.042700
     71 H8          3.4290   17.8450   -5.4870 hc        1 ZMQ      0.048200
     72 H8A         2.8000   18.8330   -4.1140 hc        1 ZMQ      0.048200
     73 H9          0.5310   18.0840   -5.8660 ha        1 ZMQ      0.120000
     74 H10         0.8280   20.1750   -7.1060 ha        1 ZMQ      0.129000
     75 H11         3.0210   20.9730   -5.3390 hc        1 ZMQ      0.047200
     76 H11A        3.7540   19.9900   -6.6620 hc        1 ZMQ      0.047200
     77 H12         1.9130   22.4560   -7.0500 hc        1 ZMQ      0.044700
     78 H12A        2.6410   21.4710   -8.3770 hc        1 ZMQ      0.044700
     79 H13         4.9450   22.0080   -7.5110 hc        1 ZMQ      0.037700
     80 H13A        4.2160   22.9920   -6.1840 hc        1 ZMQ      0.037700
     81 H14         3.8420   23.4940   -9.2190 hc        1 ZMQ      0.042200
     82 H14A        3.1140   24.4790   -7.8930 hc        1 ZMQ      0.042200
     83 H15         6.1440   24.0290   -8.3530 hc        1 ZMQ      0.037700
     84 H15A        5.4160   25.0140   -7.0270 hc        1 ZMQ      0.037700
     85 H16         4.3430   26.5230   -8.7330 hc        1 ZMQ      0.035700
     86 H16A        6.1430   26.4570   -8.9280 hc        1 ZMQ      0.035700
     87 H16B        5.0730   25.5360  -10.0630 hc        1 ZMQ      0.035700
     88 H362        4.2290    6.0300   -3.5650 hn        1 ZMQ      0.491300
     89 H412        2.1980    7.4650    1.6820 hn        1 ZMQ      0.480800
@<TRIPOS>BOND
     1    1    2 1   
     2    2    3 2   
     3    2    4 1   
     4    4    5 1   
     5    5    6 1   
     6    5   39 1   
     7    5   40 1   
     8    6    7 1   
     9    6    8 1   
    10    6    9 1   
    11    7   41 1   
    12    7   42 1   
    13    7   43 1   
    14    8   44 1   
    15    8   45 1   
    16    8   46 1   
    17    9   10 1   
    18    9   11 1   
    19    9   47 1   
    20   10   48 1   
    21   11   12 2   
    22   11   13 1   
    23   13   14 1   
    24   13   49 1   
    25   13   88 1   
    26   14   15 1   
    27   14   50 1   
    28   14   51 1   
    29   15   16 1   
    30   15   52 1   
    31   15   53 1   
    32   16   17 2   
    33   16   18 1   
    34   18   19 1   
    35   18   54 1   
    36   18   89 1   
    37   19   20 1   
    38   19   55 1   
    39   19   56 1   
    40   20   21 1   
    41   20   57 1   
    42   20   58 1   
    43   21   22 1   
    44   22   23 2   
    45   22   24 1   
    46   24   25 1   
    47   24   59 1   
    48   24   60 1   
    49   25   26 1   
    50   25   61 1   
    51   25   62 1   
    52   26   27 1   
    53   26   63 1   
    54   26   64 1   
    55   27   28 1   
    56   27   65 1   
    57   27   66 1   
    58   28   29 1   
    59   28   67 1   
    60   28   68 1   
    61   29   30 1   
    62   29   69 1   
    63   29   70 1   
    64   30   31 1   
    65   30   71 1   
    66   30   72 1   
    67   31   32 2   
    68   31   73 1   
    69   32   33 1   
    70   32   74 1   
    71   33   34 1   
    72   33   75 1   
    73   33   76 1   
    74   34   35 1   
    75   34   77 1   
    76   34   78 1   
    77   35   36 1   
    78   35   79 1   
    79   35   80 1   
    80   36   37 1   
    81   36   81 1   
    82   36   82 1   
    83   37   38 1   
    84   37   83 1   
    85   37   84 1   
    86   38   85 1   
    87   38   86 1   
    88   38   87 1   
@<TRIPOS>SUBSTRUCTURE
     1 ZMQ         1 TEMP              0 ****  ****    0 ROOT
