@<TRIPOS>MOLECULE
ZMR
   42    42     1     0     0
SMALL
bcc


@<TRIPOS>ATOM
      1 C1          0.7790   -0.0710   -0.6370 c         1 ZMR      0.933800
      2 O1A         1.8940    0.4070   -0.9770 o         1 ZMR     -0.806300
      3 O1B         0.5050   -0.5710    0.4830 o         1 ZMR     -0.806300
      4 C2         -0.3660   -0.0100   -1.6620 ce        1 ZMR      0.032900
      5 C3         -1.6650   -0.2020   -1.3770 c2        1 ZMR     -0.306200
      6 C4         -2.7560   -0.0040   -2.3860 c3        1 ZMR      0.192700
      7 C5         -2.1390   -0.1310   -3.8280 c3        1 ZMR      0.055700
      8 N5         -3.0940    0.2240   -4.8500 n         1 ZMR     -0.558900
      9 C10        -3.4270   -0.6120   -5.8950 c         1 ZMR      0.658100
     10 O10        -2.7740   -1.6470   -6.1470 o         1 ZMR     -0.622100
     11 C11        -4.5900   -0.1960   -6.7660 c3        1 ZMR     -0.175100
     12 C6         -0.8790    0.7660   -3.8520 c3        1 ZMR      0.091100
     13 O6          0.0990    0.2850   -2.9260 os        1 ZMR     -0.303900
     14 C7         -0.1700    0.8340   -5.2200 c3        1 ZMR      0.160100
     15 O7          0.1190   -0.4340   -5.7740 oh        1 ZMR     -0.594800
     16 C8          1.1640    1.5880   -5.0510 c3        1 ZMR      0.117100
     17 O8          1.4120    2.2490   -6.2880 oh        1 ZMR     -0.621800
     18 C9          2.3240    0.6680   -4.6390 c3        1 ZMR      0.125400
     19 O9          3.0980    1.2870   -3.6370 oh        1 ZMR     -0.644800
     20 NE         -3.8400   -0.9390   -2.1970 n2        1 ZMR     -0.651900
     21 CZ         -5.1010   -0.6210   -2.3440 c2        1 ZMR      0.692100
     22 NH1        -6.1080   -1.6110   -2.0190 nh        1 ZMR     -0.894800
     23 NH2        -5.6300    0.6250   -2.8320 nh        1 ZMR     -0.894800
     24 H3         -1.9510   -0.4950   -0.3570 ha        1 ZMR      0.167000
     25 H4         -3.0910    1.0780   -2.2650 h1        1 ZMR      0.004700
     26 H5         -1.8100   -1.2030   -3.9830 h1        1 ZMR      0.116700
     27 HN5        -3.6880    0.9950   -4.6580 hn        1 ZMR      0.306500
     28 H111       -5.5150   -0.0690   -6.1540 hc        1 ZMR      0.060700
     29 H112       -4.7640   -0.9870   -7.5340 hc        1 ZMR      0.060700
     30 H113       -4.3590    0.7670   -7.2830 hc        1 ZMR      0.060700
     31 H6         -1.1650    1.8140   -3.5500 h1        1 ZMR      0.038700
     32 H7         -0.8310    1.4090   -5.9300 h1        1 ZMR      0.038700
     33 HO7        -0.7090   -0.9350   -5.8070 ho        1 ZMR      0.419000
     34 H8          1.0260    2.3780   -4.2560 h1        1 ZMR      0.052700
     35 HO8         2.3450    2.4930   -6.2830 ho        1 ZMR      0.402000
     36 H91         1.9220   -0.3200   -4.2890 h1        1 ZMR      0.057200
     37 H92         3.0140    0.5060   -5.5090 h1        1 ZMR      0.057200
     38 HO9         2.6730    1.0900   -2.7800 ho        1 ZMR      0.468000
     39 HN11       -6.5820   -1.9050   -2.8520 hn        1 ZMR      0.378800
     40 HN12       -5.7000   -2.4070   -1.5650 hn        1 ZMR      0.378800
     41 HN21       -5.1010    1.4080   -2.5020 hn        1 ZMR      0.378800
     42 HN22       -6.5990    0.7500   -2.6230 hn        1 ZMR      0.378800
@<TRIPOS>BOND
     1    1    2 1   
     2    1    3 1   
     3    1    4 1   
     4    4    5 2   
     5    4   13 1   
     6    5    6 1   
     7    5   24 1   
     8    6    7 1   
     9    6   20 1   
    10    6   25 1   
    11    7    8 1   
    12    7   12 1   
    13    7   26 1   
    14    8    9 1   
    15    8   27 1   
    16    9   10 2   
    17    9   11 1   
    18   11   28 1   
    19   11   29 1   
    20   11   30 1   
    21   12   13 1   
    22   12   14 1   
    23   12   31 1   
    24   14   15 1   
    25   14   16 1   
    26   14   32 1   
    27   15   33 1   
    28   16   17 1   
    29   16   18 1   
    30   16   34 1   
    31   17   35 1   
    32   18   19 1   
    33   18   36 1   
    34   18   37 1   
    35   19   38 1   
    36   20   21 2   
    37   21   22 1   
    38   21   23 1   
    39   22   39 1   
    40   22   40 1   
    41   23   41 1   
    42   23   42 1   
@<TRIPOS>SUBSTRUCTURE
     1 ZMR         1 TEMP              0 ****  ****    0 ROOT
