@<TRIPOS>MOLECULE
molecule
   44    44     1     0     0
SMALL
bcc


@<TRIPOS>ATOM
      1 C1           0.0000     0.0000     0.0000 c          1 ZMR       0.860800
      2 O1A          1.3480     0.0000     0.0000 o          1 ZMR      -0.727800
      3 O1B         -0.6080     0.0000     1.0520 o          1 ZMR      -0.727800
      4 C2          -0.7360    -0.0010    -1.2770 ce         1 ZMR       0.178900
      5 C3          -2.0520    -0.0030    -1.2030 c2         1 ZMR      -0.381200
      6 C4          -2.9280     0.0150    -2.4300 c3         1 ZMR       0.138700
      7 C5          -2.0430    -0.2700    -3.6510 c3         1 ZMR       0.082700
      8 N5          -2.7340     0.1460    -4.8750 ns         1 ZMR      -0.609900
      9 C10         -3.5090    -0.7310    -5.5420 c          1 ZMR       0.625100
     10 O10         -3.6360    -1.8640    -5.1310 o          1 ZMR      -0.597100
     11 C11         -4.2190    -0.3030    -6.8010 c3         1 ZMR      -0.177100
     12 C6          -0.7500     0.5360    -3.4820 c3         1 ZMR       0.131100
     13 O6           0.0010    -0.0020    -2.4010 os         1 ZMR      -0.203900
     14 C7           0.0770     0.4600    -4.7670 c3         1 ZMR       0.165100
     15 O7           0.3980    -0.9050    -5.0450 oh         1 ZMR      -0.579800
     16 C8           1.3670     1.2610    -4.5930 c3         1 ZMR       0.127100
     17 O8           1.0460     2.6250    -4.3160 oh         1 ZMR      -0.628800
     18 C9           2.1940     1.1840    -5.8780 c3         1 ZMR       0.111400
     19 O9           3.3990     1.9330    -5.7150 oh         1 ZMR      -0.600800
     20 NE          -3.9630    -1.0150    -2.3160 n2         1 ZMR      -0.344900
     21 CZ          -5.2170    -0.7010    -2.4780 c2         1 ZMR       0.316100
     22 NH1         -6.1970    -1.6300    -2.2230 nz         1 ZMR      -0.736100
     23 NH2         -5.5590     0.5590    -2.9070 nz         1 ZMR      -0.736100
     24 H3          -2.5210    -0.0160    -0.2270 ha         1 ZMR       0.194000
     25 H4          -3.3870     0.9910    -2.5350 h1         1 ZMR       0.005700
     26 H5          -1.8110    -1.3270    -3.6960 h1         1 ZMR       0.153700
     27 HN5         -2.6590     1.0910    -5.1950 hn         1 ZMR       0.329500
     28 H111        -4.4980     0.7410    -6.7220 hc         1 ZMR       0.073367
     29 H112        -3.5610    -0.4370    -7.6510 hc         1 ZMR       0.073367
     30 H113        -5.1100    -0.9050    -6.9360 hc         1 ZMR       0.073367
     31 H6          -0.9980     1.5690    -3.2680 h1         1 ZMR       0.078700
     32 H7          -0.4950     0.8710    -5.5900 h1         1 ZMR       0.034700
     33 HO7          0.4250    -1.0380    -5.9780 ho         1 ZMR       0.411000
     34 H8           1.9390     0.8500    -3.7700 h1         1 ZMR       0.103700
     35 HO8          1.8060     3.0630    -3.9690 ho         1 ZMR       0.444000
     36 H91          2.4380     0.1500    -6.0900 h1         1 ZMR       0.026200
     37 H92          1.6220     1.5960    -6.7010 h1         1 ZMR       0.026200
     38 HO9          3.9370     1.8360    -6.4840 ho         1 ZMR       0.417000
     39 HN11        -5.7740    -2.5070    -1.9930 hn         1 ZMR       0.478300
     40 HN12        -6.7590    -1.3190    -1.4550 hn         1 ZMR       0.478300
     41 HN21        -5.0440     0.7810    -3.7350 hn         1 ZMR       0.478300
     42 HN22        -5.3430     1.2250    -2.1910 hn         1 ZMR       0.478300
     43 HH13        -6.8060    -1.6990    -3.0140 hn         1 ZMR       0.478300
     44 HH23        -6.5370     0.5850    -3.1190 hn         1 ZMR       0.478300
@<TRIPOS>BOND
     1     1     2 1
     2     1     3 1
     3     1     4 1
     4     4     5 2
     5     4    13 1
     6     5     6 1
     7     5    24 1
     8     6     7 1
     9     6    20 1
    10     6    25 1
    11     7     8 1
    12     7    12 1
    13     7    26 1
    14     8     9 1
    15     8    27 1
    16     9    10 2
    17     9    11 1
    18    11    28 1
    19    11    29 1
    20    11    30 1
    21    12    13 1
    22    12    14 1
    23    12    31 1
    24    14    15 1
    25    14    16 1
    26    14    32 1
    27    15    33 1
    28    16    17 1
    29    16    18 1
    30    16    34 1
    31    17    35 1
    32    18    19 1
    33    18    36 1
    34    18    37 1
    35    19    38 1
    36    20    21 2
    37    21    22 1
    38    21    23 1
    39    22    39 1
    40    22    40 1
    41    23    41 1
    42    23    42 1
    43    43    22 1
    44    44    23 1
@<TRIPOS>SUBSTRUCTURE
     1 ZMR         1 TEMP              0 ****  ****    0 ROOT
