@<TRIPOS>MOLECULE
molecule
   40    40     1     0     0
SMALL
bcc


@<TRIPOS>ATOM
      1 S02          0.0000     0.0000     0.0000 s6         1 ZN4       1.330900
      2 N11          1.6550     0.0000     0.0000 n7         1 ZN4      -0.918100
      3 O01         -0.3500     0.0000     1.3780 o          1 ZN4      -0.622800
      4 C05         -2.6440    -1.2220    -1.9320 ca         1 ZN4      -0.101000
      5 N14          4.5660     0.4930    -2.2860 n3         1 ZN4      -0.732600
      6 O19         -0.3510     1.0880    -0.8450 o          1 ZN4      -0.622800
      7 C04         -1.9550    -1.6950    -0.8300 ca         1 ZN4      -0.089300
      8 C03         -0.4540    -1.5770    -0.7720 c3         1 ZN4      -0.173300
      9 C18          4.7190     1.6310    -4.4490 c3         1 ZN4      -0.094100
     10 C10         -2.6430    -2.2760     0.2190 ca         1 ZN4      -0.101000
     11 C09         -4.0200    -2.3840     0.1670 ca         1 ZN4      -0.118000
     12 C07         -4.7090    -1.9100    -0.9360 ca         1 ZN4       0.037400
     13 C06         -4.0200    -1.3300    -1.9850 ca         1 ZN4      -0.118000
     14 C12          2.3880     0.0240    -1.2690 c3         1 ZN4       0.228800
     15 C13          3.8500     0.3920    -1.0070 c3         1 ZN4       0.152800
     16 C17          4.1470     1.6880    -3.0300 c3         1 ZN4       0.155800
     17 C15          6.0200     0.4850    -2.0770 c3         1 ZN4       0.155800
     18 C16          6.4700    -0.9200    -1.6710 c3         1 ZN4      -0.094100
     19 H031        -0.0500    -1.6170    -1.7760 h1         1 ZN4       0.103700
     20 H032        -0.0500    -2.3950    -0.1880 h1         1 ZN4       0.103700
     21 H11          2.1550    -0.0280     0.8660 hn         1 ZN4       0.455800
     22 H05         -2.1040    -0.7680    -2.7540 ha         1 ZN4       0.145000
     23 H10         -2.1040    -2.6460     1.0820 ha         1 ZN4       0.145000
     24 H06         -4.5590    -0.9590    -2.8490 ha         1 ZN4       0.149000
     25 H09         -4.5600    -2.8380     0.9890 ha         1 ZN4       0.149000
     26 H121         1.9440     0.7600    -1.9290 h1         1 ZN4       0.052200
     27 H122         2.3390    -0.9530    -1.7330 h1         1 ZN4       0.052200
     28 H131         4.3100    -0.3740    -0.3950 h1         1 ZN4       0.042200
     29 H132         3.8960     1.3430    -0.4910 h1         1 ZN4       0.042200
     30 H151         6.5190     0.7730    -2.9940 h1         1 ZN4       0.036950
     31 H152         6.2760     1.1870    -1.2920 h1         1 ZN4       0.036950
     32 H171         4.5160     2.5740    -2.5280 h1         1 ZN4       0.036950
     33 H172         3.0650     1.7230    -3.0780 h1         1 ZN4       0.036950
     34 H161         7.4940    -1.0770    -1.9880 hc         1 ZN4       0.040033
     35 H162         6.4060    -1.0230    -0.5950 hc         1 ZN4       0.040033
     36 H163         5.8290    -1.6550    -2.1430 hc         1 ZN4       0.040033
     37 H181         5.7110     2.0660    -4.4570 hc         1 ZN4       0.040033
     38 H182         4.0750     2.1870    -5.1200 hc         1 ZN4       0.040033
     39 H183         4.7740     0.5990    -4.7750 hc         1 ZN4       0.040033
     40 Cl8         -6.4390    -2.0460    -1.0020 cl         1 ZN4      -0.104400
@<TRIPOS>BOND
     1     3     1 2
     2     1     8 1
     3     1     2 1
     4     1     6 2
     5     8     7 1
     6     7     4 ar
     7     7    10 ar
     8     4    13 ar
     9    13    12 ar
    10    12    40 1
    11    12    11 ar
    12    11    10 ar
    13     2    14 1
    14    14    15 1
    15    15     5 1
    16     5    17 1
    17     5    16 1
    18    17    18 1
    19    16     9 1
    20     8    19 1
    21     8    20 1
    22     2    21 1
    23     4    22 1
    24    10    23 1
    25    13    24 1
    26    11    25 1
    27    14    26 1
    28    14    27 1
    29    15    28 1
    30    15    29 1
    31    17    30 1
    32    17    31 1
    33    16    32 1
    34    16    33 1
    35    18    34 1
    36    18    35 1
    37    18    36 1
    38     9    37 1
    39     9    38 1
    40     9    39 1
@<TRIPOS>SUBSTRUCTURE
     1 ZN4         1 TEMP              0 ****  ****    0 ROOT
