@<TRIPOS>MOLECULE
ZN4
   40    40     1     0     0
SMALL
bcc


@<TRIPOS>ATOM
      1 S02          0.0000     0.0000     0.0000 s6         1 ZN4       0.956900
      2 N11          1.6550     0.0000     0.0000 n7         1 ZN4      -0.599100
      3 O01         -0.3500     0.0000     1.3780 o          1 ZN4      -0.578300
      4 C05         -2.6440    -1.2220    -1.9320 ca         1 ZN4      -0.074000
      5 N14          4.5660     0.4930    -2.2860 n3         1 ZN4      -0.540600
      6 O19         -0.3510     1.0880    -0.8450 o          1 ZN4      -0.578300
      7 C04         -1.9550    -1.6950    -0.8300 ca         1 ZN4      -0.086300
      8 C03         -0.4540    -1.5770    -0.7720 c3         1 ZN4       0.052700
      9 C18          4.7190     1.6310    -4.4490 c3         1 ZN4      -0.000100
     10 C10         -2.6430    -2.2760     0.2190 ca         1 ZN4      -0.074000
     11 C09         -4.0200    -2.3840     0.1670 ca         1 ZN4      -0.094000
     12 C07         -4.7090    -1.9100    -0.9360 ca         1 ZN4      -0.029600
     13 C06         -4.0200    -1.3300    -1.9850 ca         1 ZN4      -0.094000
     14 C12          2.3880     0.0240    -1.2690 c3         1 ZN4       0.217800
     15 C13          3.8500     0.3920    -1.0070 c3         1 ZN4       0.135800
     16 C17          4.1470     1.6880    -3.0300 c3         1 ZN4       0.142800
     17 C15          6.0200     0.4850    -2.0770 c3         1 ZN4       0.142800
     18 C16          6.4700    -0.9200    -1.6710 c3         1 ZN4      -0.000100
     19 H031        -0.0500    -1.6170    -1.7760 h1         1 ZN4       0.070200
     20 H032        -0.0500    -2.3950    -0.1880 h1         1 ZN4       0.070200
     21 H11          2.1550    -0.0280     0.8660 hn         1 ZN4       0.352800
     22 H05         -2.1040    -0.7680    -2.7540 ha         1 ZN4       0.116000
     23 H10         -2.1040    -2.6460     1.0820 ha         1 ZN4       0.116000
     24 H06         -4.5590    -0.9590    -2.8490 ha         1 ZN4       0.117000
     25 H09         -4.5600    -2.8380     0.9890 ha         1 ZN4       0.117000
     26 H121         1.9440     0.7600    -1.9290 h1         1 ZN4       0.020700
     27 H122         2.3390    -0.9530    -1.7330 h1         1 ZN4       0.020700
     28 H131         4.3100    -0.3740    -0.3950 h1         1 ZN4       0.016200
     29 H132         3.8960     1.3430    -0.4910 h1         1 ZN4       0.016200
     30 H151         6.5190     0.7730    -2.9940 h1         1 ZN4       0.012950
     31 H152         6.2760     1.1870    -1.2920 h1         1 ZN4       0.012950
     32 H171         4.5160     2.5740    -2.5280 h1         1 ZN4       0.012950
     33 H172         3.0650     1.7230    -3.0780 h1         1 ZN4       0.012950
     34 H161         7.4940    -1.0770    -1.9880 hc         1 ZN4       0.006700
     35 H162         6.4060    -1.0230    -0.5950 hc         1 ZN4       0.006700
     36 H163         5.8290    -1.6550    -2.1430 hc         1 ZN4       0.006700
     37 H181         5.7110     2.0660    -4.4570 hc         1 ZN4       0.006700
     38 H182         4.0750     2.1870    -5.1200 hc         1 ZN4       0.006700
     39 H183         4.7740     0.5990    -4.7750 hc         1 ZN4       0.006700
     40 Cl8         -6.4390    -2.0460    -1.0020 cl         1 ZN4      -0.024400
@<TRIPOS>BOND
     1     1     2 1   
     2     1     3 2   
     3     1     6 2   
     4     1     8 1   
     5     2    14 1   
     6     2    21 1   
     7     4     7 ar  
     8     4    13 ar  
     9     4    22 1   
    10     5    15 1   
    11     5    16 1   
    12     5    17 1   
    13     7     8 1   
    14     7    10 ar  
    15     8    19 1   
    16     8    20 1   
    17     9    16 1   
    18     9    37 1   
    19     9    38 1   
    20     9    39 1   
    21    10    11 ar  
    22    10    23 1   
    23    11    12 ar  
    24    11    25 1   
    25    12    13 ar  
    26    12    40 1   
    27    13    24 1   
    28    14    15 1   
    29    14    26 1   
    30    14    27 1   
    31    15    28 1   
    32    15    29 1   
    33    16    32 1   
    34    16    33 1   
    35    17    18 1   
    36    17    30 1   
    37    17    31 1   
    38    18    34 1   
    39    18    35 1   
    40    18    36 1   
@<TRIPOS>SUBSTRUCTURE
     1 ZN4         1 TEMP              0 ****  ****    0 ROOT
