@<TRIPOS>MOLECULE
ZNE
   74    77     1     0     0
SMALL
bcc


@<TRIPOS>ATOM
      1 C1          0.5570   -0.5890   -0.3880 c3        1 ZNE      0.186300
      2 N1        -13.5640    3.6160    4.5540 nc        1 ZNE     -0.642000
      3 O1          0.0710    0.7320   -0.1590 oh        1 ZNE     -0.589800
      4 S1        -13.0740    1.5140    3.1510 ss        1 ZNE     -0.067300
      5 C2          2.0750   -0.6580   -0.2530 c3        1 ZNE     -0.146400
      6 O2          3.9120   -0.5950    1.3330 oh        1 ZNE     -0.599800
      7 C3          2.5040   -0.4480    1.1940 c3        1 ZNE      0.146100
      8 O3        -11.6140    2.5940    6.5570 oh        1 ZNE     -0.589800
      9 C4          1.8700   -1.5000    2.1020 c3        1 ZNE     -0.036200
     10 C5          0.3840   -1.4920    1.9680 ce        1 ZNE     -0.073200
     11 C6         -0.3960   -1.4970    3.0700 cf        1 ZNE     -0.109000
     12 C7         -1.8390   -1.4550    3.0630 cf        1 ZNE     -0.149000
     13 C8         -2.6410   -1.8820    4.0530 c2        1 ZNE     -0.082400
     14 C9         -2.1750   -2.5690    5.2960 c3        1 ZNE     -0.044200
     15 C10        -0.1310   -1.4980    0.6000 ce        1 ZNE     -0.069200
     16 C11        -2.8350   -2.0530    6.5640 c3        1 ZNE     -0.073400
     17 C12        -4.3390   -1.8710    6.4540 c3        1 ZNE     -0.067400
     18 C13        -4.6940   -1.0440    5.2270 c3        1 ZNE     -0.039000
     19 C14        -4.1250   -1.8010    3.9940 c3        1 ZNE     -0.035500
     20 C15        -4.8270   -1.1520    2.8110 c3        1 ZNE     -0.074400
     21 C16        -6.2150   -0.7890    3.3430 c3        1 ZNE     -0.078400
     22 C17        -6.1990   -0.9820    4.8740 c3        1 ZNE     -0.054700
     23 C18        -4.1060    0.3530    5.3310 c3        1 ZNE     -0.083100
     24 C19        -1.1450   -2.2760    0.2040 c2        1 ZNE     -0.193000
     25 C20        -7.0280    0.0790    5.5910 c3        1 ZNE     -0.054700
     26 C21        -6.9840   -0.0970    7.0970 c3        1 ZNE     -0.093100
     27 C22        -8.4790    0.0230    5.1170 c3        1 ZNE     -0.079400
     28 C23        -9.1990    1.3360    5.3430 c3        1 ZNE     -0.077400
     29 C24       -10.6360    1.2530    4.8750 c3        1 ZNE     -0.083400
     30 C25       -11.3760    2.5600    5.1590 c3        1 ZNE      0.120800
     31 C26       -12.6580    2.6490    4.3770 cd        1 ZNE      0.344700
     32 C27       -14.6170    3.4300    3.6770 cc        1 ZNE      0.334200
     33 C31       -14.4980    2.3280    2.8410 cd        1 ZNE     -0.260400
     34 H1          0.2760   -0.8900   -1.4410 h1        1 ZNE      0.034700
     35 HO1         0.5680    1.3130   -0.7470 ho        1 ZNE      0.396000
     36 H2          2.4330   -1.6590   -0.6060 hc        1 ZNE      0.052700
     37 H2A         2.5470    0.1230   -0.9040 hc        1 ZNE      0.052700
     38 HO2         4.3170    0.0790    0.7740 ho        1 ZNE      0.398000
     39 H3          2.1960    0.5830    1.5290 h1        1 ZNE      0.048700
     40 H4          2.1840   -1.2990    3.1600 hc        1 ZNE      0.062200
     41 H4A         2.2660   -2.5130    1.8210 hc        1 ZNE      0.062200
     42 H6          0.0890   -1.5000    4.0630 ha        1 ZNE      0.124000
     43 H7         -2.2890   -1.0150    2.1520 ha        1 ZNE      0.137000
     44 H9         -2.4060   -3.6650    5.1830 hc        1 ZNE      0.047200
     45 H9A        -1.0630   -2.4790    5.4120 hc        1 ZNE      0.047200
     46 H11        -2.6170   -2.7720    7.3970 hc        1 ZNE      0.040700
     47 H11A       -2.3690   -1.0710    6.8440 hc        1 ZNE      0.040700
     48 H12        -4.8380   -2.8730    6.3840 hc        1 ZNE      0.042200
     49 H12A       -4.7160   -1.3730    7.3840 hc        1 ZNE      0.042200
     50 H14        -4.4990   -2.8680    4.0530 hc        1 ZNE      0.052700
     51 H15        -4.8910   -1.8500    1.9420 hc        1 ZNE      0.046200
     52 H15A       -4.2850   -0.2330    2.4750 hc        1 ZNE      0.046200
     53 H16        -6.9950   -1.4440    2.8830 hc        1 ZNE      0.040700
     54 H16A       -6.4590    0.2710    3.0830 hc        1 ZNE      0.040700
     55 H17        -6.6470   -1.9850    5.1150 hc        1 ZNE      0.046700
     56 H18        -4.4760    0.9930    4.4930 hc        1 ZNE      0.037700
     57 H18A       -4.3930    0.8280    6.2990 hc        1 ZNE      0.037700
     58 H18B       -2.9910    0.3140    5.2710 hc        1 ZNE      0.037700
     59 H19        -1.6510   -2.9690    0.8890 ha        1 ZNE      0.120000
     60 H19A       -1.5240   -2.2690   -0.8260 ha        1 ZNE      0.120000
     61 H20        -6.6080    1.0930    5.3360 hc        1 ZNE      0.051700
     62 H21        -7.7920    0.5030    7.5840 hc        1 ZNE      0.035700
     63 H21A       -7.1280   -1.1690    7.3730 hc        1 ZNE      0.035700
     64 H21B       -6.0050    0.2480    7.5080 hc        1 ZNE      0.035700
     65 H22        -9.0140   -0.8000    5.6620 hc        1 ZNE      0.041200
     66 H22A       -8.5210   -0.2250    4.0240 hc        1 ZNE      0.041200
     67 H23        -8.6680    2.1560    4.7910 hc        1 ZNE      0.050200
     68 H23A       -9.1870    1.6060    6.4330 hc        1 ZNE      0.050200
     69 H24       -11.1570    0.4140    5.4070 hc        1 ZNE      0.055200
     70 H24A      -10.6670    1.0450    3.7730 hc        1 ZNE      0.055200
     71 H25       -10.7290    3.4410    4.8690 h1        1 ZNE      0.056700
     72 H27       -15.4490    4.1430    3.6970 h4        1 ZNE      0.045100
     73 H31       -15.2230    2.0290    2.0880 h4        1 ZNE      0.182000
     74 HO3       -12.0830    3.4150    6.7520 ho        1 ZNE      0.420000
@<TRIPOS>BOND
     1    1    3 1   
     2    1    5 1   
     3    1   15 1   
     4    1   34 1   
     5    2   31 2   
     6    2   32 1   
     7    3   35 1   
     8    4   31 1   
     9    4   33 1   
    10    5    7 1   
    11    5   36 1   
    12    5   37 1   
    13    6    7 1   
    14    6   38 1   
    15    7    9 1   
    16    7   39 1   
    17    8   30 1   
    18    8   74 1   
    19    9   10 1   
    20    9   40 1   
    21    9   41 1   
    22   10   11 2   
    23   10   15 1   
    24   11   12 1   
    25   11   42 1   
    26   12   13 2   
    27   12   43 1   
    28   13   14 1   
    29   13   19 1   
    30   14   16 1   
    31   14   44 1   
    32   14   45 1   
    33   15   24 2   
    34   16   17 1   
    35   16   46 1   
    36   16   47 1   
    37   17   18 1   
    38   17   48 1   
    39   17   49 1   
    40   18   19 1   
    41   18   22 1   
    42   18   23 1   
    43   19   20 1   
    44   19   50 1   
    45   20   21 1   
    46   20   51 1   
    47   20   52 1   
    48   21   22 1   
    49   21   53 1   
    50   21   54 1   
    51   22   25 1   
    52   22   55 1   
    53   23   56 1   
    54   23   57 1   
    55   23   58 1   
    56   24   59 1   
    57   24   60 1   
    58   25   26 1   
    59   25   27 1   
    60   25   61 1   
    61   26   62 1   
    62   26   63 1   
    63   26   64 1   
    64   27   28 1   
    65   27   65 1   
    66   27   66 1   
    67   28   29 1   
    68   28   67 1   
    69   28   68 1   
    70   29   30 1   
    71   29   69 1   
    72   29   70 1   
    73   30   31 1   
    74   30   71 1   
    75   32   33 2   
    76   32   72 1   
    77   33   73 1   
@<TRIPOS>SUBSTRUCTURE
     1 ZNE         1 TEMP              0 ****  ****    0 ROOT
