@<TRIPOS>MOLECULE
molecule
   74    77     1     0     0
SMALL
bcc


@<TRIPOS>ATOM
      1 C1           0.0000     0.0000     0.0000 c3         1 ZNE       0.189300
      2 N1         -12.5840     3.5100     3.2550 nc         1 ZNE      -0.685000
      3 O1          -0.4820     1.1880     0.6300 oh         1 ZNE      -0.598800
      4 S1         -13.6300     2.2110     5.0790 ss         1 ZNE      -0.169300
      5 C2           1.5320     0.0000     0.0000 c3         1 ZNE      -0.099400
      6 O2           3.4710     0.1490     1.4330 oh         1 ZNE      -0.610800
      7 C3           2.0500     0.0000     1.4390 c3         1 ZNE       0.152100
      8 O3         -10.8550     3.0680     6.2840 oh         1 ZNE      -0.599800
      9 C4           1.6790    -1.3190     2.1240 c3         1 ZNE      -0.044200
     10 C5           0.1730    -1.4780     2.0690 ce         1 ZNE      -0.080200
     11 C6          -0.5400    -1.8420     3.1550 cf         1 ZNE      -0.120000
     12 C7          -1.9950    -1.9860     3.0620 cf         1 ZNE      -0.159000
     13 C8          -2.6990    -2.3450     4.1360 c2         1 ZNE      -0.095400
     14 C9          -2.0480    -2.6200     5.4830 c3         1 ZNE      -0.044200
     15 C10         -0.4780    -1.2150     0.7690 ce         1 ZNE      -0.087200
     16 C11         -2.7570    -1.8490     6.5940 c3         1 ZNE      -0.078400
     17 C12         -4.2850    -2.0260     6.5250 c3         1 ZNE      -0.065400
     18 C13         -4.7400    -1.5280     5.1750 c3         1 ZNE      -0.060000
     19 C14         -4.1900    -2.5030     4.1030 c3         1 ZNE      -0.034500
     20 C15         -4.9070    -1.9970     2.8480 c3         1 ZNE      -0.078400
     21 C16         -6.3480    -1.7260     3.3630 c3         1 ZNE      -0.082400
     22 C17         -6.2320    -1.4970     4.8830 c3         1 ZNE      -0.054700
     23 C18         -4.1610    -0.1340     4.9270 c3         1 ZNE      -0.090100
     24 C19         -1.4390    -2.0090     0.2950 c2         1 ZNE      -0.209000
     25 C20         -6.8170    -0.1300     5.2470 c3         1 ZNE      -0.072700
     26 C21         -6.7240     0.0770     6.7600 c3         1 ZNE      -0.096100
     27 C22         -8.2830    -0.0700     4.8130 c3         1 ZNE      -0.080400
     28 C23         -8.8320     1.3370     5.0630 c3         1 ZNE      -0.083400
     29 C24        -10.2970     1.3970     4.6290 c3         1 ZNE      -0.073400
     30 C25        -10.8450     2.8030     4.8800 c3         1 ZNE       0.124800
     31 C26        -12.2500     2.8980     4.3410 cd         1 ZNE       0.403700
     32 C27        -13.8600     3.4950     2.9270 cc         1 ZNE       0.363200
     33 C31        -14.6460     2.8360     3.7830 cd         1 ZNE      -0.199400
     34 H1          -0.3620    -0.0510    -1.0200 h1         1 ZNE       0.037700
     35 HO1         -0.9400     1.7160    -0.0030 ho         1 ZNE       0.401000
     36 H2           1.8900     0.8860    -0.5100 hc         1 ZNE       0.056700
     37 H2A          1.8910    -0.8860    -0.5100 hc         1 ZNE       0.056700
     38 HO2          3.7090     0.9180     1.9240 ho         1 ZNE       0.402000
     39 H3           1.6000     0.8230     1.9800 h1         1 ZNE       0.053700
     40 H4           2.0040    -1.2960     3.1570 hc         1 ZNE       0.057700
     41 H4A          2.1510    -2.1440     1.6050 hc         1 ZNE       0.057700
     42 H6          -0.0360    -2.0280     4.0960 ha         1 ZNE       0.134000
     43 H7          -2.4980    -1.8000     2.1210 ha         1 ZNE       0.146000
     44 H9          -1.0090    -2.3140     5.4450 hc         1 ZNE       0.048700
     45 H9A         -2.1040    -3.6810     5.6950 hc         1 ZNE       0.048700
     46 H11         -2.4040    -2.2090     7.5530 hc         1 ZNE       0.043200
     47 H11A        -2.5210    -0.7960     6.4970 hc         1 ZNE       0.043200
     48 H12         -4.7570    -1.4450     7.3090 hc         1 ZNE       0.044700
     49 H12A        -4.5370    -3.0740     6.6340 hc         1 ZNE       0.044700
     50 H14         -4.4780    -3.5220     4.3290 hc         1 ZNE       0.065700
     51 H15         -4.4510    -1.0830     2.4890 hc         1 ZNE       0.048200
     52 H15A        -4.9130    -2.7600     2.0780 hc         1 ZNE       0.048200
     53 H16         -6.9790    -2.5840     3.1650 hc         1 ZNE       0.044200
     54 H16A        -6.7520    -0.8420     2.8840 hc         1 ZNE       0.044200
     55 H17         -6.7390    -2.2880     5.4230 hc         1 ZNE       0.054700
     56 H18         -3.1030    -0.2160     4.7100 hc         1 ZNE       0.040367
     57 H18A        -4.6680     0.3240     4.0860 hc         1 ZNE       0.040367
     58 H18B        -4.3020     0.4770     5.8100 hc         1 ZNE       0.040367
     59 H19         -1.8980    -1.7910    -0.6620 ha         1 ZNE       0.121500
     60 H19A        -1.7600    -2.8710     0.8660 ha         1 ZNE       0.121500
     61 H20         -6.2580     0.6480     4.7410 hc         1 ZNE       0.060700
     62 H21         -6.5190    -0.8710     7.2420 hc         1 ZNE       0.037367
     63 H21A        -5.9240     0.7740     6.9800 hc         1 ZNE       0.037367
     64 H21B        -7.6610     0.4750     7.1280 hc         1 ZNE       0.037367
     65 H22         -8.8580    -0.7880     5.3840 hc         1 ZNE       0.043200
     66 H22A        -8.3570    -0.3040     3.7580 hc         1 ZNE       0.043200
     67 H23         -8.2560     2.0550     4.4930 hc         1 ZNE       0.049700
     68 H23A        -8.7580     1.5710     6.1180 hc         1 ZNE       0.049700
     69 H24        -10.8720     0.6780     5.2000 hc         1 ZNE       0.058200
     70 H24A       -10.3710     1.1630     3.5740 hc         1 ZNE       0.058200
     71 H25        -10.2170     3.5300     4.3800 h1         1 ZNE       0.064700
     72 H27        -14.2410     3.9790     2.0350 h4         1 ZNE       0.043100
     73 H31        -15.7180     2.7090     3.6950 h4         1 ZNE       0.180000
     74 HO3        -10.8480     4.0000     6.4280 ho         1 ZNE       0.409000
@<TRIPOS>BOND
     1     1     3 1
     2     1     5 1
     3     1    15 1
     4     2    31 2
     5     2    32 1
     6     4    31 1
     7     4    33 1
     8     5     7 1
     9     6     7 1
    10     7     9 1
    11     8    30 1
    12     9    10 1
    13    10    11 2
    14    10    15 1
    15    11    12 1
    16    12    13 2
    17    13    14 1
    18    13    19 1
    19    14    16 1
    20    15    24 2
    21    16    17 1
    22    17    18 1
    23    18    19 1
    24    18    22 1
    25    18    23 1
    26    19    20 1
    27    20    21 1
    28    21    22 1
    29    22    25 1
    30    25    26 1
    31    25    27 1
    32    27    28 1
    33    28    29 1
    34    29    30 1
    35    30    31 1
    36    32    33 2
    37     1    34 1
    38     3    35 1
    39     5    36 1
    40     5    37 1
    41     6    38 1
    42     7    39 1
    43     8    74 1
    44     9    40 1
    45     9    41 1
    46    11    42 1
    47    12    43 1
    48    14    44 1
    49    14    45 1
    50    16    46 1
    51    16    47 1
    52    17    48 1
    53    17    49 1
    54    19    50 1
    55    20    51 1
    56    20    52 1
    57    21    53 1
    58    21    54 1
    59    22    55 1
    60    23    56 1
    61    23    57 1
    62    23    58 1
    63    24    59 1
    64    24    60 1
    65    25    61 1
    66    26    62 1
    67    26    63 1
    68    26    64 1
    69    27    65 1
    70    27    66 1
    71    28    67 1
    72    28    68 1
    73    29    69 1
    74    29    70 1
    75    30    71 1
    76    32    72 1
    77    33    73 1
@<TRIPOS>SUBSTRUCTURE
     1 ZNE         1 TEMP              0 ****  ****    0 ROOT
