@<TRIPOS>MOLECULE
ZNN
   27    25     1     0     0
SMALL
bcc


@<TRIPOS>ATOM
      1 N           0.5060    0.1130   -0.3550 n4        1 ZNN     -0.065000
      2 CA          1.8260   -0.0580    0.3160 c3        1 ZNN     -0.135000
      3 CB          1.8220    0.3860    1.7770 c3        1 ZNN     -0.191000
      4 CG          3.2060    0.1710    2.3610 c3        1 ZNN     -0.196000
      5 CD          3.2680    0.5870    3.7960 c2        1 ZNN      0.137000
      6 NE          4.3410    0.5030    4.5220 n3        1 ZNN     -0.130000
      7 CZ          7.1560   -0.9120    2.4770 c2        1 ZNN      0.255000
      8 O           5.9610   -0.5920    2.4170 o         1 ZNN     -0.400000
      9 CO          8.0420   -0.7970    3.6900 c3        1 ZNN     -0.155000
     10 N6          7.3420   -0.2510    4.8450 n2        1 ZNN     -0.377000
     11 N8          7.9680   -0.1020    5.9340 n2        1 ZNN      0.209000
     12 N9          8.3700    0.0960    6.9710 n1        1 ZNN      0.079000
     13 H1          0.2200    1.1000   -0.3450 hn        1 ZNN      0.269667
     14 H2          0.5710   -0.2020   -1.3320 hn        1 ZNN      0.269667
     15 H4          2.5860    0.5430   -0.2670 hx        1 ZNN      0.165000
     16 H5          2.1060   -1.1510    0.2460 hx        1 ZNN      0.165000
     17 H6          1.5410    1.4710    1.8530 hc        1 ZNN      0.124000
     18 H7          1.0660   -0.2070    2.3610 hc        1 ZNN      0.124000
     19 H8          3.9830    0.7450    1.7730 hc        1 ZNN      0.176000
     20 H9          3.5120   -0.9150    2.2760 hc        1 ZNN      0.176000
     21 H10         5.2210    0.1400    4.1480 hn        1 ZNN      0.311500
     22 H11         2.3330    0.9920    4.2560 h4        1 ZNN      0.199000
     23 H12         4.3550    0.7910    5.4870 hn        1 ZNN      0.311500
     24 H13         8.9240   -0.1540    3.3810 h1        1 ZNN      0.136000
     25 H14         8.4480   -1.8380    3.8890 h1        1 ZNN      0.136000
     26 HN3        -0.2160   -0.4410    0.1220 hn        1 ZNN      0.269667
     27 HE3         7.6820   -1.3300    1.5860 h4        1 ZNN      0.140000
@<TRIPOS>BOND
     1    1    2 1
     2    1   13 1
     3    1   14 1
     4    1   26 1
     5    2    3 1
     6    2   15 1
     7    2   16 1
     8    3    4 1
     9    3   17 1
    10    3   18 1
    11    4    5 1
    12    4   19 1
    13    4   20 1
    14    5    6 1
    15    5   22 1
    16    6   21 1
    17    6   23 1
    18    7    8 1
    19    7    9 1
    20    7   27 1
    21    9   10 1
    22    9   24 1
    23    9   25 1
    24   10   11 1
    25   11   12 1
@<TRIPOS>SUBSTRUCTURE
     1 ZNN         1 TEMP              0 ****  ****    0 ROOT
