@<TRIPOS>MOLECULE
ZNP
   28    28     1     0     0
SMALL
bcc


@<TRIPOS>ATOM
      1 CAF          0.0000     0.0000     0.0000 ca         1 ZNP      -0.095000
      2 CAG          1.3820     0.0000     0.0000 ca         1 ZNP      -0.079500
      3 CAH          2.0730     0.0000     1.1980 ca         1 ZNP      -0.066000
      4 CAI          1.3800    -0.0010     2.3950 ca         1 ZNP      -0.079500
      5 CAJ         -0.0020    -0.0010     2.3940 ca         1 ZNP      -0.095000
      6 CAE         -0.6920    -0.0020     1.1960 ca         1 ZNP      -0.149300
      7 CAD         -2.1990    -0.0020     1.1950 c3         1 ZNP       0.056900
      8 CAB         -2.7090    -1.4360     1.3460 c3         1 ZNP      -0.109700
      9 CAA         -2.3140    -2.2500     0.1110 c3         1 ZNP      -0.287700
     10 NAK         -2.6980    -3.6510     0.3070 no         1 ZNP       0.901300
     11 OAN         -3.2500    -4.2630    -0.5900 o          1 ZNP      -0.416000
     12 OAM         -2.4630    -4.2040     1.3670 o          1 ZNP      -0.416000
     13 CAC         -4.2090    -1.4250     1.4810 c          1 ZNP       0.296100
     14 OAO         -4.8680    -0.6170     0.8610 o          1 ZNP      -0.375100
     15 NAL         -4.8200    -2.3120     2.2910 nz         1 ZNP       0.186600
     16 HAF         -0.5410    -0.0000    -0.9380 ha         1 ZNP       0.103500
     17 HAG          1.9240     0.0010    -0.9380 ha         1 ZNP       0.118500
     18 HAH          3.1560    -0.0000     1.1990 ha         1 ZNP       0.120000
     19 HAI          1.9210    -0.0010     3.3340 ha         1 ZNP       0.118500
     20 HAJ         -0.5440    -0.0020     3.3320 ha         1 ZNP       0.103500
     21 HAD         -2.5590     0.4130     0.2610 hc         1 ZNP       0.042700
     22 HADA        -2.5610     0.5990     2.0200 hc         1 ZNP       0.042700
     23 HAB         -2.2700    -1.8850     2.2290 hc         1 ZNP       0.080700
     24 HAA         -1.2430    -2.1860    -0.0370 h1         1 ZNP       0.112200
     25 HAAA        -2.8230    -1.8550    -0.7600 h1         1 ZNP       0.112200
     26 HNAL        -5.5380    -1.8490     2.8130 hn         1 ZNP       0.257467
     27 HNAA        -4.1500    -2.7050     2.9220 hn         1 ZNP       0.257467
     28 HAL3        -5.2270    -3.0420     1.7400 hn         1 ZNP       0.257467
@<TRIPOS>BOND
     1     1     2 ar  
     2     1     6 ar  
     3     1    16 1   
     4     2     3 ar  
     5     2    17 1   
     6     3     4 ar  
     7     3    18 1   
     8     4     5 ar  
     9     4    19 1   
    10     5     6 ar  
    11     5    20 1   
    12     6     7 1   
    13     7     8 1   
    14     7    21 1   
    15     7    22 1   
    16     8     9 1   
    17     8    13 1   
    18     8    23 1   
    19     9    10 1   
    20     9    24 1   
    21     9    25 1   
    22    10    11 1   
    23    10    12 1   
    24    13    14 2   
    25    13    15 1   
    26    15    26 1   
    27    15    27 1   
    28    15    28 1   
@<TRIPOS>SUBSTRUCTURE
     1 ZNP         1 TEMP              0 ****  ****    0 ROOT
