@<TRIPOS>MOLECULE
ZO0
   39    41     1     0     0
SMALL
bcc


@<TRIPOS>ATOM
      1 F13          0.0000     0.0000     0.0000 f          1 ZO0      -0.200300
      2 C11          1.4000     0.0000     0.0000 c3         1 ZO0       0.549600
      3 F14          1.8660     0.0000     1.3180 f          1 ZO0      -0.200300
      4 F12          1.8660    -1.1420    -0.6600 f          1 ZO0      -0.200300
      5 C2           1.9020     1.2310    -0.7110 ca         1 ZO0       0.495300
      6 N1           1.0600     2.2130    -0.9330 nb         1 ZO0      -0.537000
      7 C6           1.4660     3.3260    -1.5620 ca         1 ZO0       0.383600
      8 C7           0.5940     4.3940    -1.8150 ca         1 ZO0      -0.142300
      9 C8           1.0580     5.5030    -2.4570 ca         1 ZO0      -0.072000
     10 C9           2.3860     5.5930    -2.8670 ca         1 ZO0      -0.092000
     11 C10          3.2600     4.5710    -2.6370 ca         1 ZO0      -0.058000
     12 C5           2.8160     3.4190    -1.9780 ca         1 ZO0      -0.235600
     13 C4           3.6750     2.3260    -1.7100 ca         1 ZO0       0.543200
     14 N3           3.1720     1.2740    -1.0770 nb         1 ZO0      -0.615000
     15 N15          5.0000     2.3560    -2.0920 nh         1 ZO0      -0.501300
     16 C16          5.8440     2.3380    -0.9750 c3         1 ZO0       0.140800
     17 C17          7.3180     2.5750    -1.3760 c3         1 ZO0      -0.034400
     18 C18          7.8680     1.3120    -1.9880 c3         1 ZO0       0.148800
     19 N19          7.7310     1.2790    -3.4620 n3         1 ZO0      -0.552600
     20 C22          8.0050    -0.0640    -3.9870 c3         1 ZO0       0.185100
     21 C20          6.4320     1.7840    -3.9520 c3         1 ZO0       0.144800
     22 C21          5.2850     1.3100    -3.0950 c3         1 ZO0       0.114800
     23 H7          -0.4420     4.3390    -1.5010 ha         1 ZO0       0.126000
     24 H8           0.3840     6.3280    -2.6520 ha         1 ZO0       0.108000
     25 H9           2.7300     6.4860    -3.3760 ha         1 ZO0       0.109000
     26 H10          4.2910     4.6520    -2.9600 ha         1 ZO0       0.129000
     27 H161         5.7620     1.3740    -0.4870 h1         1 ZO0       0.019700
     28 H162         5.5360     3.1160    -0.2870 h1         1 ZO0       0.019700
     29 H211         4.4100     1.1490    -3.7130 h1         1 ZO0       0.030200
     30 H212         5.5600     0.3900    -2.5940 h1         1 ZO0       0.030200
     31 H171         7.8960     2.8310    -0.4960 hc         1 ZO0       0.032700
     32 H172         7.3710     3.3800    -2.0990 hc         1 ZO0       0.032700
     33 H181         7.3370     0.4640    -1.5720 h1         1 ZO0       0.013700
     34 H182         8.9180     1.2310    -1.7350 h1         1 ZO0       0.013700
     35 H221         7.9890    -0.0390    -5.0700 h1         1 ZO0       0.001367
     36 H222         8.9800    -0.3920    -3.6480 h1         1 ZO0       0.001367
     37 H223         7.2480    -0.7530    -3.6300 h1         1 ZO0       0.001367
     38 H201         6.2800     1.4360    -4.9660 h1         1 ZO0       0.032200
     39 H202         6.4510     2.8670    -3.9450 h1         1 ZO0       0.032200
@<TRIPOS>BOND
     1     1     2 1   
     2     2     3 1   
     3     2     4 1   
     4     2     5 1   
     5     5     6 ar  
     6     5    14 ar  
     7     6     7 ar  
     8     7     8 ar  
     9     7    12 ar  
    10     8     9 ar  
    11     8    23 1   
    12     9    10 ar  
    13     9    24 1   
    14    10    11 ar  
    15    10    25 1   
    16    11    12 ar  
    17    11    26 1   
    18    12    13 ar  
    19    13    14 ar  
    20    13    15 1   
    21    15    16 1   
    22    15    22 1   
    23    16    17 1   
    24    16    27 1   
    25    16    28 1   
    26    17    18 1   
    27    17    31 1   
    28    17    32 1   
    29    18    19 1   
    30    18    33 1   
    31    18    34 1   
    32    19    20 1   
    33    19    21 1   
    34    20    35 1   
    35    20    36 1   
    36    20    37 1   
    37    21    22 1   
    38    21    38 1   
    39    21    39 1   
    40    22    29 1   
    41    22    30 1   
@<TRIPOS>SUBSTRUCTURE
     1 ZO0         1 TEMP              0 ****  ****    0 ROOT
