@<TRIPOS>MOLECULE
molecule
   19    21     1     0     0
SMALL
bcc


@<TRIPOS>ATOM
      1 C9           0.0000     0.0000     0.0000 cc         1 ZO6      -0.227800
      2 C8           1.3210     0.0000     0.0000 cd         1 ZO6      -0.085400
      3 S            1.9560     0.0000     1.6340 ss         1 ZO6      -0.071500
      4 C7           0.3410     0.0010     2.3300 ca         1 ZO6      -0.120400
      5 C           -0.0920     0.0020     3.6780 ca         1 ZO6      -0.110300
      6 C6          -0.6130     0.0020     1.3170 ca         1 ZO6       0.433100
      7 N1          -1.9300     0.0030     1.6310 nb         1 ZO6      -0.654000
      8 C5          -2.3770     0.0050     2.8550 ca         1 ZO6       0.443200
      9 C4          -1.4850     0.0030     3.9410 ca         1 ZO6      -0.136300
     10 C3          -1.9100     0.0030     5.2780 ca         1 ZO6      -0.222300
     11 C2          -0.9640     0.0040     6.2610 ca         1 ZO6       0.412200
     12 N            0.3320     0.0030     5.9870 nb         1 ZO6      -0.679000
     13 C1           0.7990     0.0020     4.7580 ca         1 ZO6       0.439200
     14 H9          -0.5820    -0.0000    -0.9130 ha         1 ZO6       0.165000
     15 H8           1.9320    -0.0000    -0.8940 h4         1 ZO6       0.178000
     16 H1           1.8680     0.0010     4.5820 h4         1 ZO6       0.033100
     17 H5          -3.4450     0.0070     3.0380 h4         1 ZO6       0.033100
     18 H3          -2.9650     0.0040     5.5240 ha         1 ZO6       0.145000
     19 H2          -1.2820     0.0040     7.2970 h4         1 ZO6       0.025100
@<TRIPOS>BOND
     1     1     2 2
     2     1     6 1
     3     2     3 1
     4     3     4 1
     5     4     5 ar
     6     4     6 ar
     7     5     9 ar
     8     5    13 ar
     9     6     7 ar
    10     7     8 ar
    11     8     9 ar
    12     9    10 ar
    13    10    11 ar
    14    11    12 ar
    15    12    13 ar
    16     1    14 1
    17     2    15 1
    18    13    16 1
    19     8    17 1
    20    10    18 1
    21    11    19 1
@<TRIPOS>SUBSTRUCTURE
     1 ZO6         1 TEMP              0 ****  ****    0 ROOT
