@<TRIPOS>MOLECULE
ZO6
   19    21     1     0     0
SMALL
bcc


@<TRIPOS>ATOM
      1 C9         -0.0450    0.0010   -0.0260 cc        1 ZO6     -0.221800
      2 C8          1.3230   -0.0000    0.0630 cd        1 ZO6     -0.177400
      3 S           1.8800   -0.0000    1.6460 ss        1 ZO6      0.107500
      4 C7          0.3440    0.0010    2.3050 ca        1 ZO6     -0.199400
      5 C          -0.0730    0.0020    3.6610 ca        1 ZO6     -0.091300
      6 C6         -0.6520    0.0020    1.2850 ca        1 ZO6      0.398100
      7 N1         -2.0080    0.0030    1.5400 nb        1 ZO6     -0.612000
      8 C5         -2.3780    0.0040    2.8020 ca        1 ZO6      0.415200
      9 C4         -1.4680    0.0030    3.9240 ca        1 ZO6     -0.128300
     10 C3         -1.9010    0.0040    5.2680 ca        1 ZO6     -0.210300
     11 C2         -0.9440    0.0040    6.2770 ca        1 ZO6      0.380200
     12 N           0.4010    0.0030    6.0450 nb        1 ZO6     -0.647000
     13 C1          0.8130    0.0020    4.7820 ca        1 ZO6      0.407200
     14 H9         -0.6310    0.0010   -0.9480 ha        1 ZO6      0.172000
     15 H8          2.0090   -0.0010   -0.7840 h4        1 ZO6      0.177000
     16 H1          1.9060    0.0010    4.6180 h4        1 ZO6      0.026100
     17 H5         -3.4660    0.0050    3.0000 h4        1 ZO6      0.027100
     18 H3         -2.9740    0.0050    5.5030 ha        1 ZO6      0.148000
     19 H2         -1.2320    0.0040    7.3430 h4        1 ZO6      0.027100
@<TRIPOS>BOND
     1    1    2 2   
     2    1    6 1   
     3    1   14 1   
     4    2    3 1   
     5    2   15 1   
     6    3    4 1   
     7    4    5 ar  
     8    4    6 ar  
     9    5    9 ar  
    10    5   13 ar  
    11    6    7 ar  
    12    7    8 ar  
    13    8    9 ar  
    14    8   17 1   
    15    9   10 ar  
    16   10   11 ar  
    17   10   18 1   
    18   11   12 ar  
    19   11   19 1   
    20   12   13 ar  
    21   13   16 1   
@<TRIPOS>SUBSTRUCTURE
     1 ZO6         1 TEMP              0 ****  ****    0 ROOT
