@<TRIPOS>MOLECULE
molecule
   19    21     1     0     0
SMALL
bcc


@<TRIPOS>ATOM
      1 CAO          0.0000     0.0000     0.0000 ca         1 ZO8       0.047000
      2 CAN          1.4170     0.0000     0.0000 ca         1 ZO8      -0.304600
      3 CAH          2.0840     0.0000     1.2320 ca         1 ZO8       0.463200
      4 CAF          0.0650    -0.0030     2.3730 ca         1 ZO8       0.434200
      5 CAL         -0.6740    -0.0020     1.2230 ca         1 ZO8      -0.246300
      6 CAC         -2.3950    -0.0120    -2.8590 cc         1 ZO8      -0.099400
      7 CAG         -2.0730    -0.0070    -1.5770 cd         1 ZO8      -0.120200
      8 CAM         -0.6980    -0.0050    -1.2930 ca         1 ZO8      -0.196100
      9 CAJ          0.0920    -0.0090    -2.4430 ca         1 ZO8       0.479600
     10 NAC          1.4290    -0.0080    -2.3570 nb         1 ZO8      -0.670000
     11 SAK         -0.9540    -0.0150    -3.8610 ss         1 ZO8      -0.118900
     12 CAK          2.0920     0.0020    -1.2320 ca         1 ZO8       0.473200
     13 N            1.3900    -0.0020     2.3490 nb         1 ZO8      -0.699000
     14 HAL         -1.7570    -0.0030     1.2600 ha         1 ZO8       0.145000
     15 HAH          3.1670     0.0010     1.2650 h4         1 ZO8       0.030100
     16 HAK          3.1750     0.0120    -1.2490 h4         1 ZO8       0.031100
     17 HAF         -0.4450    -0.0050     3.3280 h4         1 ZO8       0.025100
     18 HAC         -3.4090    -0.0150    -3.2400 h4         1 ZO8       0.176000
     19 HAG         -2.8220    -0.0040    -0.7950 ha         1 ZO8       0.149000
@<TRIPOS>BOND
     1     1     2 ar
     2     1     5 ar
     3     1     8 ar
     4     2     3 ar
     5     2    12 ar
     6     3    13 ar
     7     4     5 ar
     8     4    13 ar
     9     6     7 2
    10     6    11 1
    11     7     8 1
    12     8     9 ar
    13     9    10 ar
    14     9    11 1
    15    10    12 ar
    16     5    14 1
    17     3    15 1
    18    12    16 1
    19     4    17 1
    20     6    18 1
    21     7    19 1
@<TRIPOS>SUBSTRUCTURE
     1 ZO8         1 TEMP              0 ****  ****    0 ROOT
