@<TRIPOS>MOLECULE
ZO8
   19    21     1     0     0
SMALL
bcc


@<TRIPOS>ATOM
      1 CAO        -0.0460   -0.0040    0.0050 ca        1 ZO8      0.057000
      2 CAN         1.3740   -0.0010   -0.0150 ca        1 ZO8     -0.288600
      3 CAH         2.0620    0.0020    1.2320 ca        1 ZO8      0.438200
      4 CAF         0.0840   -0.0010    2.4140 ca        1 ZO8      0.404200
      5 CAL        -0.6950   -0.0040    1.2620 ca        1 ZO8     -0.239300
      6 CAC        -2.3300   -0.0110   -2.9090 cc        1 ZO8     -0.194400
      7 CAG        -2.1110   -0.0090   -1.5530 cd        1 ZO8     -0.111200
      8 CAM        -0.7130   -0.0060   -1.2530 ca        1 ZO8     -0.190100
      9 CAJ         0.0720   -0.0060   -2.4410 ca        1 ZO8      0.369600
     10 NAC         1.4470   -0.0030   -2.4550 nb        1 ZO8     -0.626000
     11 SAK        -0.9190   -0.0090   -3.8070 ss        1 ZO8      0.046100
     12 CAK         2.0530   -0.0010   -1.2850 ca        1 ZO8      0.442200
     13 N           1.4480    0.0020    2.4120 nb        1 ZO8     -0.669000
     14 HAL        -1.7920   -0.0060    1.3170 ha        1 ZO8      0.148000
     15 HAH         3.1680    0.0040    1.2510 h4        1 ZO8      0.026100
     16 HAK         3.1600    0.0010   -1.3020 h4        1 ZO8      0.028100
     17 HAF        -0.3790   -0.0010    3.4170 h4        1 ZO8      0.025100
     18 HAC        -3.3120   -0.0130   -3.3840 h4        1 ZO8      0.176000
     19 HAG        -2.8860   -0.0100   -0.7840 ha        1 ZO8      0.158000
@<TRIPOS>BOND
     1    1    2 ar  
     2    1    5 ar  
     3    1    8 ar  
     4    2    3 ar  
     5    2   12 ar  
     6    3   13 ar  
     7    3   15 1   
     8    4    5 ar  
     9    4   13 ar  
    10    4   17 1   
    11    5   14 1   
    12    6    7 2   
    13    6   11 1   
    14    6   18 1   
    15    7    8 1   
    16    7   19 1   
    17    8    9 ar  
    18    9   10 ar  
    19    9   11 1   
    20   10   12 ar  
    21   12   16 1   
@<TRIPOS>SUBSTRUCTURE
     1 ZO8         1 TEMP              0 ****  ****    0 ROOT
