@<TRIPOS>MOLECULE
ZO9
   33    36     1     0     0
SMALL
bcc


@<TRIPOS>ATOM
      1 C           0.0620   -0.0640    0.1180 ca        1 ZO9     -0.122000
      2 N          -0.4390    0.0370    3.8230 nc        1 ZO9     -0.629100
      3 O           0.9310    0.0950    8.1840 os        1 ZO9      0.197600
      4 C1          1.4780   -0.1100    0.1300 ca        1 ZO9     -0.079000
      5 N1          1.8740   -0.0560    3.8530 na        1 ZO9     -0.078300
      6 C2          2.2000   -0.1060    1.3060 ca        1 ZO9     -0.125000
      7 N2          1.5480    0.0600    6.9920 nc        1 ZO9     -0.289300
      8 C3          1.4750   -0.0550    2.5130 ca        1 ZO9     -0.050200
      9 N3         -0.3770    0.1130    8.1200 nc        1 ZO9     -0.237300
     10 C4          0.0190   -0.0060    2.5110 ca        1 ZO9      0.076400
     11 N4         -2.0140    0.0960    6.2070 n4        1 ZO9     -0.773300
     12 C5         -0.6750   -0.0130    1.2810 ca        1 ZO9     -0.074000
     13 C6          0.6850    0.0190    4.6050 cd        1 ZO9      0.284800
     14 C7          3.2390   -0.0450    4.3210 c3        1 ZO9      0.059300
     15 C8          3.7800    1.3180    4.6640 cx        1 ZO9     -0.174700
     16 C9          5.2700    1.5230    4.5580 cx        1 ZO9     -0.111400
     17 C10         4.3550    2.1910    3.5780 cx        1 ZO9     -0.111400
     18 C11         0.5920    0.0510    6.0450 cd        1 ZO9      0.303700
     19 C12        -0.7000    0.0880    6.7970 cd        1 ZO9      0.242900
     20 H          -0.4540   -0.0700   -0.8560 ha        1 ZO9      0.157000
     21 H1          2.0110   -0.1480   -0.8340 ha        1 ZO9      0.158000
     22 H2          3.2990   -0.1370    1.3070 ha        1 ZO9      0.155000
     23 HN4        -2.1200   -0.7520    5.6240 hn        1 ZO9      0.491467
     24 HN4A       -2.0960    0.9260    5.5940 hn        1 ZO9      0.491467
     25 H5         -1.7740    0.0220    1.2650 ha        1 ZO9      0.153000
     26 H7          3.8680   -0.5050    3.5000 h1        1 ZO9      0.083700
     27 H7A         3.3140   -0.7150    5.2250 h1        1 ZO9      0.083700
     28 H8          3.2440    1.8080    5.5000 hc        1 ZO9      0.089700
     29 H9          5.9060    0.6860    4.2170 hc        1 ZO9      0.083950
     30 H9A         5.7730    2.1310    5.3320 hc        1 ZO9      0.083950
     31 H10         4.2010    3.2830    3.6390 hc        1 ZO9      0.083950
     32 H10A        4.3320    1.8300    2.5340 hc        1 ZO9      0.083950
     33 H43        -2.7480    0.1200    6.9270 hn        1 ZO9      0.491467
@<TRIPOS>BOND
     1    1    4 ar
     2    1   12 ar
     3    1   20 1
     4    2   10 1
     5    2   13 2
     6    3    7 1
     7    3    9 1
     8    4    6 ar
     9    4   21 1
    10    5    8 1
    11    5   13 1
    12    5   14 1
    13    6    8 ar
    14    6   22 1
    15    7   18 2
    16    8   10 ar
    17    9   19 2
    18   10   12 ar
    19   11   19 1
    20   11   23 1
    21   11   24 1
    22   11   33 1
    23   12   25 1
    24   13   18 1
    25   14   15 1
    26   14   26 1
    27   14   27 1
    28   15   16 1
    29   15   17 1
    30   15   28 1
    31   16   17 1
    32   16   29 1
    33   16   30 1
    34   17   31 1
    35   17   32 1
    36   18   19 1
@<TRIPOS>SUBSTRUCTURE
     1 ZO9         1 TEMP              0 ****  ****    0 ROOT
