@<TRIPOS>MOLECULE
ZOE
   51    52     1     0     0
SMALL
bcc


@<TRIPOS>ATOM
      1 OAD          0.0000     0.0000     0.0000 o          1 ZOE      -0.439200
      2 SAY          1.4210     0.0000     0.0000 s4         1 ZOE      -0.063400
      3 CAO          2.0340     0.0000     1.7340 c3         1 ZOE       0.096900
      4 CAV          3.3390    -0.8120     1.6320 c3         1 ZOE       0.022700
      5 NAQ          4.4580     0.1020     1.3570 ns         1 ZOE      -0.222900
      6 CAU          5.0310    -0.2440     0.1970 c          1 ZOE       0.617500
      7 OAC          5.9850     0.3450    -0.2740 o          1 ZOE      -0.724500
      8 NAR          4.4590    -1.3000    -0.3970 ns         1 ZOE      -0.220900
      9 CAX          3.3400    -1.7700     0.4340 c3         1 ZOE       0.030700
     10 CAW          2.0340    -1.6910    -0.3800 c3         1 ZOE       0.081600
     11 CAN          2.3180    -1.8410    -1.8760 c3         1 ZOE       0.007600
     12 CAJ          0.9960    -1.8830    -2.6460 c3         1 ZOE      -0.045400
     13 CAI          1.2810    -2.0330    -4.1410 c3         1 ZOE      -0.011400
     14 CAM         -0.0410    -2.0760    -4.9110 c3         1 ZOE      -0.098400
     15 CAT          0.2390    -2.2230    -6.3830 c          1 ZOE       0.565100
     16 OAB          1.3830    -2.2880    -6.7800 o          1 ZOE      -0.661100
     17 NAP         -0.7820    -2.2830    -7.2610 ns         1 ZOE      -0.189900
     18 CAK         -0.5090    -2.4260    -8.6930 c3         1 ZOE       0.042000
     19 CAG         -1.8310    -2.4680    -9.4630 c3         1 ZOE      -0.043400
     20 CAF         -1.5470    -2.6190   -10.9590 c3         1 ZOE      -0.031400
     21 CAH         -2.8690    -2.6610   -11.7270 c3         1 ZOE      -0.016400
     22 CAL         -2.5850    -2.8100   -13.2230 c3         1 ZOE      -0.133400
     23 CAS         -3.8870    -2.8520   -13.9800 c          1 ZOE       0.980600
     24 OAA         -3.8820    -2.9800   -15.3160 o          1 ZOE      -0.905800
     25 OAE         -4.9350    -2.7700   -13.3850 o          1 ZOE      -0.905800
     26 H2           2.3100     1.0190     1.9750 h1         1 ZOE       0.074200
     27 H3           1.3370    -0.5880     2.3190 h1         1 ZOE       0.074200
     28 H4           3.5170    -1.3580     2.5510 h1         1 ZOE       0.036700
     29 H5           4.7450     0.8610     1.9430 hn         1 ZOE       0.214500
     30 H6           4.7470    -1.7040    -1.2660 hn         1 ZOE       0.226500
     31 H7           3.5180    -2.7860     0.7650 h1         1 ZOE       0.038700
     32 H8           1.3270    -2.4390    -0.0410 h1         1 ZOE       0.069700
     33 H9           2.9080    -0.9980    -2.2170 hc         1 ZOE       0.026200
     34 H10          2.8660    -2.7590    -2.0500 hc         1 ZOE       0.026200
     35 H11          0.4480    -0.9650    -2.4730 hc         1 ZOE       0.025200
     36 H12          0.4060    -2.7250    -2.3040 hc         1 ZOE       0.025200
     37 H13          1.8710    -1.1910    -4.4830 hc         1 ZOE       0.029700
     38 H14          1.8290    -2.9520    -4.3140 hc         1 ZOE       0.029700
     39 H15         -0.5890    -1.1570    -4.7380 hc         1 ZOE       0.026700
     40 H16         -0.6310    -2.9180    -4.5690 hc         1 ZOE       0.026700
     41 H17         -1.7260    -2.2300    -6.9340 hn         1 ZOE       0.172500
     42 H18          0.0390    -3.3440    -8.8670 h1         1 ZOE       0.025200
     43 H19          0.0800    -1.5840    -9.0350 h1         1 ZOE       0.025200
     44 H20         -2.4210    -3.3100    -9.1210 hc         1 ZOE       0.015200
     45 H21         -2.3790    -1.5500    -9.2900 hc         1 ZOE       0.015200
     46 H22         -0.9570    -1.7770   -11.3000 hc         1 ZOE       0.008700
     47 H23         -0.9990    -3.5370   -11.1320 hc         1 ZOE       0.008700
     48 H24         -3.4170    -1.7420   -11.5530 hc         1 ZOE       0.020700
     49 H25         -3.4590    -3.5030   -11.3850 hc         1 ZOE       0.020700
     50 H26         -2.0360    -3.7280   -13.3960 hc         1 ZOE       0.004700
     51 H27         -1.9960    -1.9670   -13.5640 hc         1 ZOE       0.004700
@<TRIPOS>BOND
     1     1     2 2   
     2     2     3 1   
     3     2    10 1   
     4     3     4 1   
     5     3    26 1   
     6     3    27 1   
     7     4     5 1   
     8     4     9 1   
     9     4    28 1   
    10     5     6 1   
    11     5    29 1   
    12     6     7 2   
    13     6     8 1   
    14     8     9 1   
    15     8    30 1   
    16     9    10 1   
    17     9    31 1   
    18    10    11 1   
    19    10    32 1   
    20    11    12 1   
    21    11    33 1   
    22    11    34 1   
    23    12    13 1   
    24    12    35 1   
    25    12    36 1   
    26    13    14 1   
    27    13    37 1   
    28    13    38 1   
    29    14    15 1   
    30    14    39 1   
    31    14    40 1   
    32    15    16 2   
    33    15    17 1   
    34    17    18 1   
    35    17    41 1   
    36    18    19 1   
    37    18    42 1   
    38    18    43 1   
    39    19    20 1   
    40    19    44 1   
    41    19    45 1   
    42    20    21 1   
    43    20    46 1   
    44    20    47 1   
    45    21    22 1   
    46    21    48 1   
    47    21    49 1   
    48    22    23 1   
    49    22    50 1   
    50    22    51 1   
    51    23    24 1   
    52    23    25 1   
@<TRIPOS>SUBSTRUCTURE
     1 ZOE         1 TEMP              0 ****  ****    0 ROOT
