@<TRIPOS>MOLECULE
molecule
   51    52     1     0     0
SMALL
bcc


@<TRIPOS>ATOM
      1 OAD          0.0000     0.0000     0.0000 o          1 ZOE      -0.498200
      2 SAY          1.4210     0.0000     0.0000 s4         1 ZOE       0.266600
      3 CAO          2.0340     0.0000     1.7340 c3         1 ZOE      -0.079100
      4 CAV          3.3390    -0.8120     1.6320 c3         1 ZOE       0.103700
      5 NAQ          4.4580     0.1020     1.3570 ns         1 ZOE      -0.605900
      6 CAU          5.0310    -0.2440     0.1970 c          1 ZOE       0.808500
      7 OAC          5.9850     0.3450    -0.2740 o          1 ZOE      -0.680500
      8 NAR          4.4590    -1.3000    -0.3970 ns         1 ZOE      -0.598900
      9 CAX          3.3400    -1.7700     0.4340 c3         1 ZOE       0.108700
     10 CAW          2.0340    -1.6910    -0.3800 c3         1 ZOE      -0.059400
     11 CAN          2.3180    -1.8410    -1.8760 c3         1 ZOE      -0.046400
     12 CAJ          0.9960    -1.8830    -2.6460 c3         1 ZOE      -0.093400
     13 CAI          1.2810    -2.0330    -4.1410 c3         1 ZOE      -0.064400
     14 CAM         -0.0410    -2.0760    -4.9110 c3         1 ZOE      -0.160400
     15 CAT          0.2390    -2.2230    -6.3830 c          1 ZOE       0.653100
     16 OAB          1.3830    -2.2880    -6.7800 o          1 ZOE      -0.620100
     17 NAP         -0.7820    -2.2830    -7.2610 ns         1 ZOE      -0.581900
     18 CAK         -0.5090    -2.4260    -8.6930 c3         1 ZOE       0.105000
     19 CAG         -1.8310    -2.4680    -9.4630 c3         1 ZOE      -0.101400
     20 CAF         -1.5470    -2.6190   -10.9590 c3         1 ZOE      -0.084400
     21 CAH         -2.8690    -2.6610   -11.7270 c3         1 ZOE      -0.063400
     22 CAL         -2.5850    -2.8100   -13.2230 c3         1 ZOE      -0.183400
     23 CAS         -3.8870    -2.8520   -13.9800 c          1 ZOE       0.891600
     24 OAA         -3.8820    -2.9800   -15.3160 o          1 ZOE      -0.856300
     25 OAE         -4.9350    -2.7700   -13.3850 o          1 ZOE      -0.856300
     26 H2           2.3100     1.0190     1.9750 h1         1 ZOE       0.097200
     27 H3           1.3370    -0.5880     2.3190 h1         1 ZOE       0.097200
     28 H4           3.5170    -1.3580     2.5510 h1         1 ZOE       0.066700
     29 H5           4.7450     0.8610     1.9430 hn         1 ZOE       0.360500
     30 H6           4.7470    -1.7040    -1.2660 hn         1 ZOE       0.368500
     31 H7           3.5180    -2.7860     0.7650 h1         1 ZOE       0.068700
     32 H8           1.3270    -2.4390    -0.0410 h1         1 ZOE       0.091700
     33 H9           2.9080    -0.9980    -2.2170 hc         1 ZOE       0.051700
     34 H10          2.8660    -2.7590    -2.0500 hc         1 ZOE       0.051700
     35 H11          0.4480    -0.9650    -2.4730 hc         1 ZOE       0.047700
     36 H12          0.4060    -2.7250    -2.3040 hc         1 ZOE       0.047700
     37 H13          1.8710    -1.1910    -4.4830 hc         1 ZOE       0.058200
     38 H14          1.8290    -2.9520    -4.3140 hc         1 ZOE       0.058200
     39 H15         -0.5890    -1.1570    -4.7380 hc         1 ZOE       0.058700
     40 H16         -0.6310    -2.9180    -4.5690 hc         1 ZOE       0.058700
     41 H17         -1.7260    -2.2300    -6.9340 hn         1 ZOE       0.312500
     42 H18          0.0390    -3.3440    -8.8670 h1         1 ZOE       0.050700
     43 H19          0.0800    -1.5840    -9.0350 h1         1 ZOE       0.050700
     44 H20         -2.4210    -3.3100    -9.1210 hc         1 ZOE       0.042700
     45 H21         -2.3790    -1.5500    -9.2900 hc         1 ZOE       0.042700
     46 H22         -0.9570    -1.7770   -11.3000 hc         1 ZOE       0.033700
     47 H23         -0.9990    -3.5370   -11.1320 hc         1 ZOE       0.033700
     48 H24         -3.4170    -1.7420   -11.5530 hc         1 ZOE       0.045700
     49 H25         -3.4590    -3.5030   -11.3850 hc         1 ZOE       0.045700
     50 H26         -2.0360    -3.7280   -13.3960 hc         1 ZOE       0.028200
     51 H27         -1.9960    -1.9670   -13.5640 hc         1 ZOE       0.028200
@<TRIPOS>BOND
     1    25    23 1
     2    23    24 1
     3    23    22 1
     4    22    21 1
     5    21    20 1
     6    20    19 1
     7    18    19 1
     8    18    17 1
     9    16    15 2
    10    15    17 1
    11    15    14 1
    12    14    13 1
    13    13    12 1
    14    12    11 1
    15    11    10 1
    16    10     9 1
    17    10     2 1
    18     8     9 1
    19     8     6 1
    20     9     4 1
    21     1     2 2
    22     2     3 1
    23     6     7 2
    24     6     5 1
    25     4     3 1
    26     4     5 1
    27     3    26 1
    28     3    27 1
    29     4    28 1
    30     5    29 1
    31     8    30 1
    32     9    31 1
    33    10    32 1
    34    11    33 1
    35    11    34 1
    36    12    35 1
    37    12    36 1
    38    13    37 1
    39    13    38 1
    40    14    39 1
    41    14    40 1
    42    17    41 1
    43    18    42 1
    44    18    43 1
    45    19    44 1
    46    19    45 1
    47    20    46 1
    48    20    47 1
    49    21    48 1
    50    21    49 1
    51    22    50 1
    52    22    51 1
@<TRIPOS>SUBSTRUCTURE
     1 ZOE         1 TEMP              0 ****  ****    0 ROOT
