@<TRIPOS>MOLECULE
ZOF
   51    52     1     0     0
SMALL
bcc


@<TRIPOS>ATOM
      1 OAW          0.0000     0.0000     0.0000 o          1 ZOF      -0.905800
      2 CAV          1.3420     0.0000     0.0000 c          1 ZOF       0.980600
      3 OAX          1.9470     0.0000     1.0460 o          1 ZOF      -0.905800
      4 CAU          2.0960     0.0030    -1.3050 c3         1 ZOF      -0.134400
      5 CAT          3.6000     0.0030    -1.0260 c3         1 ZOF      -0.016400
      6 CAS          4.3650     0.0050    -2.3510 c3         1 ZOF      -0.031400
      7 CAR          5.8690     0.0060    -2.0710 c3         1 ZOF      -0.043400
      8 CAQ          6.6340     0.0080    -3.3970 c3         1 ZOF       0.042000
      9 NAO          8.0740     0.0090    -3.1290 ns         1 ZOF      -0.189900
     10 CAN          8.9500     0.0110    -4.1540 c          1 ZOF       0.564100
     11 OAP          8.5450     0.0110    -5.2980 o          1 ZOF      -0.660100
     12 CAM         10.4310     0.0110    -3.8790 c3         1 ZOF      -0.098400
     13 CAL         11.1960     0.0130    -5.2040 c3         1 ZOF      -0.013400
     14 CAK         12.7000     0.0140    -4.9250 c3         1 ZOF      -0.038400
     15 CAI         13.4650     0.0160    -6.2500 c3         1 ZOF      -0.016400
     16 CAH         14.9700     0.0160    -5.9710 c3         1 ZOF       0.064400
     17 SAG         15.4960     1.6210    -5.2430 ss         1 ZOF      -0.408200
     18 CAF         17.2220     1.5160    -5.8720 c3         1 ZOF       0.082700
     19 CAC         17.0440     0.8110    -7.2310 c3         1 ZOF       0.124500
     20 CAD         15.7700    -0.0430    -7.2870 c3         1 ZOF       0.140500
     21 NAE         14.9670     0.5530    -8.3640 nu         1 ZOF      -0.553200
     22 CAA         15.6510     1.6160    -8.8910 c2         1 ZOF       0.569100
     23 NAJ         15.1990     2.3530    -9.8660 n2         1 ZOF      -0.851100
     24 NAB         16.8650     1.8220    -8.2830 nu         1 ZOF      -0.487200
     25 H2           1.8340     0.8880    -1.8720 hc         1 ZOF       0.004700
     26 H3           1.8350    -0.8810    -1.8750 hc         1 ZOF       0.004700
     27 H4           3.8620    -0.8820    -0.4580 hc         1 ZOF       0.020700
     28 H5           3.8610     0.8870    -0.4570 hc         1 ZOF       0.020700
     29 H6           4.1040    -0.8790    -2.9200 hc         1 ZOF       0.008700
     30 H7           4.1030     0.8900    -2.9180 hc         1 ZOF       0.008700
     31 H8           6.1310    -0.8800    -1.5050 hc         1 ZOF       0.015200
     32 H9           6.1300     0.8890    -1.5020 hc         1 ZOF       0.015200
     33 H10          6.3730    -0.8750    -3.9670 h1         1 ZOF       0.025700
     34 H11          6.3720     0.8940    -3.9630 h1         1 ZOF       0.025700
     35 H12          8.4070     0.0270    -2.1860 hn         1 ZOF       0.172500
     36 H13         10.6930    -0.8750    -3.3130 hc         1 ZOF       0.025700
     37 H14         10.6920     0.8940    -3.3090 hc         1 ZOF       0.025700
     38 H15         10.9340     0.8990    -5.7710 hc         1 ZOF       0.030200
     39 H16         10.9350    -0.8700    -5.7740 hc         1 ZOF       0.030200
     40 H17         12.9620    -0.8710    -4.3580 hc         1 ZOF       0.022200
     41 H18         12.9610     0.8980    -4.3560 hc         1 ZOF       0.022200
     42 H19         13.2030     0.9010    -6.8170 hc         1 ZOF       0.031200
     43 H20         13.2040    -0.8680    -6.8190 hc         1 ZOF       0.031200
     44 H21         15.2450    -0.8050    -5.3210 h1         1 ZOF       0.057700
     45 H22         17.7560     0.8310    -5.2250 h1         1 ZOF       0.063700
     46 H23         17.5480     2.5280    -6.0780 h1         1 ZOF       0.063700
     47 H24         17.9110     0.1990    -7.4490 h1         1 ZOF       0.032700
     48 H25         16.0170    -1.0700    -7.5290 h1         1 ZOF       0.034700
     49 H26         14.0680     0.2330    -8.6660 hn         1 ZOF       0.335800
     50 H27         14.3060     2.1540   -10.2710 hn         1 ZOF       0.328400
     51 H28         17.5190     2.5430    -8.5160 hn         1 ZOF       0.327800
@<TRIPOS>BOND
     1     1     2 1   
     2     2     3 1   
     3     2     4 1   
     4     4     5 1   
     5     4    25 1   
     6     4    26 1   
     7     5     6 1   
     8     5    27 1   
     9     5    28 1   
    10     6     7 1   
    11     6    29 1   
    12     6    30 1   
    13     7     8 1   
    14     7    31 1   
    15     7    32 1   
    16     8     9 1   
    17     8    33 1   
    18     8    34 1   
    19     9    10 1   
    20     9    35 1   
    21    10    11 2   
    22    10    12 1   
    23    12    13 1   
    24    12    36 1   
    25    12    37 1   
    26    13    14 1   
    27    13    38 1   
    28    13    39 1   
    29    14    15 1   
    30    14    40 1   
    31    14    41 1   
    32    15    16 1   
    33    15    42 1   
    34    15    43 1   
    35    16    17 1   
    36    16    20 1   
    37    16    44 1   
    38    17    18 1   
    39    18    19 1   
    40    18    45 1   
    41    18    46 1   
    42    19    20 1   
    43    19    24 1   
    44    19    47 1   
    45    20    21 1   
    46    20    48 1   
    47    21    22 1   
    48    21    49 1   
    49    22    23 2   
    50    22    24 1   
    51    23    50 1   
    52    24    51 1   
@<TRIPOS>SUBSTRUCTURE
     1 ZOF         1 TEMP              0 ****  ****    0 ROOT
