@<TRIPOS>MOLECULE
molecule
   22    22     1     0     0
SMALL
bcc


@<TRIPOS>ATOM
      1 O17          0.0000     0.0000     0.0000 o          1 ZOL      -0.930000
      2 P14          1.6100     0.0000     0.0000 p5         1 ZOL       1.096700
      3 O16          2.1460     0.0000     1.5180 o          1 ZOL      -0.930000
      4 O15          2.1030    -1.2090    -0.6970 o          1 ZOL      -0.930000
      5 C8           2.2170     1.4880    -0.8590 c3         1 ZOL      -0.191600
      6 P9           4.0280     1.6000    -0.6750 p5         1 ZOL       1.096700
      7 O10          4.5640     2.9150    -1.4350 o          1 ZOL      -0.930000
      8 O11          4.4030     1.6920     0.8870 o          1 ZOL      -0.930000
      9 O12          4.6580     0.3980    -1.2650 o          1 ZOL      -0.930000
     10 O13          1.8840     1.4070    -2.2470 oh         1 ZOL      -0.649800
     11 C7           1.5640     2.7310    -0.2510 c3         1 ZOL       0.112300
     12 N15          1.8470     2.7760     1.1850 na         1 ZOL      -0.157900
     13 C16          1.1020     2.2260     2.1680 cc         1 ZOL       0.466400
     14 N17          1.6730     2.4720     3.3150 nd         1 ZOL      -0.813000
     15 C18          2.7880     3.1890     3.1090 cd         1 ZOL       0.181200
     16 C19          2.9150     3.3900     1.7840 cc         1 ZOL      -0.126600
     17 H13          2.3410     0.6810    -2.6380 ho         1 ZOL       0.393000
     18 H71          1.9640     3.6190    -0.7260 h1         1 ZOL       0.002700
     19 H72          0.4930     2.6890    -0.4070 h1         1 ZOL       0.002700
     20 H16          0.1850     1.6670     2.0270 h5         1 ZOL       0.061100
     21 H18          3.4680     3.5420     3.8750 h4         1 ZOL      -0.053900
     22 H19          3.7100     3.9330     1.2870 h4         1 ZOL       0.160000
@<TRIPOS>BOND
     1     1     2 1
     2     2     3 1
     3     2     4 1
     4     2     5 1
     5     5     6 1
     6     5    10 1
     7     5    11 1
     8     6     7 1
     9     6     8 1
    10     6     9 1
    11    10    17 1
    12    11    12 1
    13    11    18 1
    14    11    19 1
    15    12    13 1
    16    12    16 1
    17    13    14 2
    18    13    20 1
    19    14    15 1
    20    15    16 2
    21    15    21 1
    22    16    22 1
@<TRIPOS>SUBSTRUCTURE
     1 ZOL         1 TEMP              0 ****  ****    0 ROOT
