@<TRIPOS>MOLECULE
ZOL
   22    22     1     0     0
SMALL
bcc


@<TRIPOS>ATOM
      1 O17         0.2140    0.0030    0.2000 o         1 ZOL     -0.969833
      2 P14         1.6430   -0.4030   -0.1460 p5        1 ZOL      1.249200
      3 O16         2.3140   -1.0800    1.0290 o         1 ZOL     -0.969833
      4 O15         1.6730   -1.2610   -1.4010 o         1 ZOL     -0.969833
      5 C8          2.5120    1.2210   -0.6440 c3        1 ZOL     -0.198600
      6 P9          4.1610    1.9280   -1.0310 p5        1 ZOL      1.249200
      7 O10         3.9020    3.3670   -1.4690 o         1 ZOL     -0.969833
      8 O11         5.0080    1.9760    0.2480 o         1 ZOL     -0.969833
      9 O12         4.8190    1.1130   -2.1270 o         1 ZOL     -0.969833
     10 O13         2.0150    1.2360   -2.0110 oh        1 ZOL     -0.678800
     11 C7          1.6960    2.3210    0.0160 c3        1 ZOL      0.031300
     12 N15         1.8630    2.6840    1.4190 na        1 ZOL     -0.076900
     13 C16         0.8210    3.1080    2.2540 cc        1 ZOL      0.299400
     14 N17         1.2800    3.5860    3.4440 nd        1 ZOL     -0.807000
     15 C18         2.6660    3.4590    3.3620 cd        1 ZOL      0.110200
     16 C19         3.0390    2.8940    2.1100 cc        1 ZOL     -0.197600
     17 H13         2.3990    0.4240   -2.3770 ho        1 ZOL      0.426000
     18 H71         1.9230    3.2750   -0.5610 h1        1 ZOL      0.061700
     19 H72         0.6030    2.0390   -0.1010 h1        1 ZOL      0.061700
     20 H16        -0.2240    2.9800    1.9740 h5        1 ZOL      0.020100
     21 H18         3.3150    3.7490    4.1790 h4        1 ZOL     -0.041900
     22 H19         4.0120    2.5960    1.5890 h4        1 ZOL      0.309000
@<TRIPOS>BOND
     1    1    2 1   
     2    2    3 1   
     3    2    4 1   
     4    2    5 1   
     5    5    6 1   
     6    5   10 1   
     7    5   11 1   
     8    6    7 1   
     9    6    8 1   
    10    6    9 1   
    11   10   17 1   
    12   11   12 1   
    13   11   18 1   
    14   11   19 1   
    15   12   13 1   
    16   12   16 1   
    17   13   14 2   
    18   13   20 1   
    19   14   15 1   
    20   15   16 2   
    21   15   21 1   
    22   16   22 1   
@<TRIPOS>SUBSTRUCTURE
     1 ZOL         1 TEMP              0 ****  ****    0 ROOT
