@<TRIPOS>MOLECULE
ZOM
   33    32     1     0     0
SMALL
bcc


@<TRIPOS>ATOM
      1 CL          1.8160   -1.8300    1.3890 cl        1 ZOM     -0.135400
      2 N1          8.1350    0.2610   -1.6740 na        1 ZOM     -0.104100
      3 C2          9.4910    0.3820   -1.8140 cc        1 ZOM     -0.098300
      4 C3          9.9290    1.5390   -1.1240 cd        1 ZOM     -0.273000
      5 C4          8.7750    2.1440   -0.5520 cd        1 ZOM     -0.075300
      6 C5          7.6580    1.3300   -0.9050 cc        1 ZOM     -0.263900
      7 O6          5.8770    2.5510    0.0500 o         1 ZOM     -0.603100
      8 C8          7.0390   -2.3370   -3.4770 c         1 ZOM      0.890800
      9 OH          6.1910   -1.6290   -2.8390 o         1 ZOM     -0.862300
     10 C10         8.7420    3.3720    0.2410 c3        1 ZOM     -0.023800
     11 C1B         5.3060    0.4260   -0.9200 c3        1 ZOM     -0.170200
     12 C2B         3.9230    0.7000   -0.4630 c2        1 ZOM     -0.096300
     13 C3B         2.9950   -0.2000   -0.3120 c1        1 ZOM     -0.025800
     14 C4B         2.0380   -1.0770   -0.1460 ce        1 ZOM      0.109600
     15 C5B         1.1310   -1.4870   -1.1370 cg        1 ZOM     -0.130300
     16 C6B         0.3610   -1.8390   -1.9830 c1        1 ZOM     -0.149500
     17 OXT         8.2770   -2.0690   -3.4000 o         1 ZOM     -0.862300
     18 H3         10.9500    1.8920   -1.0490 ha        1 ZOM      0.134000
     19 H7         10.0500   -0.3570   -2.3960 h4        1 ZOM      0.188000
     20 H7A         7.4060   -4.0090   -4.8460 ha        1 ZOM      0.105000
     21 H9          7.5720   -0.4700   -2.0920 hn        1 ZOM      0.378700
     22 H9A         4.5160   -3.3300   -3.9070 ha        1 ZOM      0.098000
     23 H9B         5.0010   -4.7060   -5.0580 ha        1 ZOM      0.098000
     24 H10         9.7110    3.5240    0.7780 hc        1 ZOM      0.036033
     25 H10A        8.5670    4.2570   -0.4240 hc        1 ZOM      0.036033
     26 H10B        7.9090    3.3390    0.9890 hc        1 ZOM      0.036033
     27 H2B         5.3100    0.2940   -2.0450 hc        1 ZOM      0.126700
     28 H3B         3.6950    1.7640   -0.2450 ha        1 ZOM      0.161000
     29 H5B        -0.3110   -2.1530   -2.7380 ha        1 ZOM      0.160500
     30 H6B         5.6800   -0.5560   -0.5160 hc        1 ZOM      0.126700
     31 C7          6.5900   -3.4860   -4.3220 ce        1 ZOM     -0.200200
     32 C6          6.2640    1.5270   -0.5430 c         1 ZOM      0.618700
     33 C9          5.3190   -3.8600   -4.4370 c2        1 ZOM     -0.228000
@<TRIPOS>BOND
     1    1   14 1   
     2    2    3 1   
     3    2    6 1   
     4    2   21 1   
     5    3    4 2   
     6    3   19 1   
     7    4    5 1   
     8    4   18 1   
     9    5    6 2   
    10    5   10 1   
    11    6   32 1   
    12    7   32 2   
    13    8    9 1   
    14    8   17 1   
    15    8   31 1   
    16   10   24 1   
    17   10   25 1   
    18   10   26 1   
    19   11   12 1   
    20   11   27 1   
    21   11   30 1   
    22   11   32 1   
    23   12   13 2   
    24   12   28 1   
    25   13   14 2   
    26   14   15 1   
    27   15   16 3   
    28   16   29 1   
    29   20   31 1   
    30   22   33 1   
    31   23   33 1   
    32   31   33 2   
@<TRIPOS>SUBSTRUCTURE
     1 ZOM         1 TEMP              0 ****  ****    0 ROOT
