@<TRIPOS>MOLECULE
molecule
   33    34     1     0     0
SMALL
bcc


@<TRIPOS>ATOM
      1 Cl           0.0000     0.0000     0.0000 cl         1 ZOM      -0.126400
      2 N1           7.0760    -0.9070    -2.1010 na         1 ZOM      -0.019100
      3 C2           7.7390    -0.3900    -3.1640 cc         1 ZOM      -0.009600
      4 C3           7.8160     0.9560    -3.0210 cd         1 ZOM      -0.217000
      5 C4           7.1790     1.2980    -1.8260 cd         1 ZOM      -0.109300
      6 C5           6.7170     0.1240    -1.2630 cc         1 ZOM      -0.259900
      7 O6           6.5930    -0.1040     1.0490 o          1 ZOM      -0.516100
      8 C8           9.7520    -1.4860    -4.0590 c          1 ZOM       0.888600
      9 OH          10.2790    -1.0980    -3.0430 o          1 ZOM      -0.837300
     10 C10          7.0220     2.6870    -1.2610 c3         1 ZOM      -0.015800
     11 C1B          4.5060     0.0000     0.0000 ca         1 ZOM      -0.162600
     12 C2B          3.8050     0.0000     1.2080 ca         1 ZOM      -0.069000
     13 C3B          2.4260     0.0010     1.2010 ca         1 ZOM      -0.145500
     14 C4B          1.7360     0.0010    -0.0000 ca         1 ZOM       0.045400
     15 C5B          2.4260     0.0010    -1.2010 ca         1 ZOM      -0.145500
     16 C6B          3.8050     0.0060    -1.2080 ca         1 ZOM      -0.069000
     17 OXT         10.4610    -2.1860    -4.9580 o          1 ZOM      -0.837300
     18 H3           8.2900     1.6440    -3.7110 ha         1 ZOM       0.148000
     19 H7           7.7490    -2.1110    -4.4180 hc         1 ZOM       0.043200
     20 H7A          8.2070    -0.6070    -5.2300 hc         1 ZOM       0.043200
     21 H9           7.6920    -2.9050    -2.0120 h1         1 ZOM       0.049033
     22 H9A          6.4080    -2.4670    -0.8770 h1         1 ZOM       0.049033
     23 H9B          6.0410    -2.6560    -2.5970 h1         1 ZOM       0.049033
     24 H10          7.7200     3.3560    -1.7480 hc         1 ZOM       0.030367
     25 H10A         6.0100     3.0330    -1.4310 hc         1 ZOM       0.030367
     26 H10B         7.2230     2.6680    -0.1960 hc         1 ZOM       0.030367
     27 H2B          4.3440    -0.0000     2.1480 ha         1 ZOM       0.160000
     28 H3B          1.8810     0.0010     2.1380 ha         1 ZOM       0.140500
     29 H5B          1.8810     0.0060    -2.1370 ha         1 ZOM       0.140500
     30 H6B          4.3430     0.0060    -2.1480 ha         1 ZOM       0.160000
     31 C7           8.2990    -1.1830    -4.3170 c3         1 ZOM      -0.132100
     32 C6           5.9840    -0.0000     0.0000 c          1 ZOM       0.629300
     33 C9           6.7850    -2.3260    -1.8830 c3         1 ZOM       0.034600
@<TRIPOS>BOND
     1     1    14 1
     2     3     2 1
     3     6     2 1
     4     2    33 1
     5     4     3 2
     6    31     3 1
     7     4     5 1
     8     4    18 1
     9    10     5 1
    10     5     6 2
    11     6    32 1
    12    11    32 1
    13    32     7 2
    14     8    31 1
    15    31    19 1
    16    31    20 1
    17     9     8 1
    18     8    17 1
    19    33    21 1
    20    33    22 1
    21    33    23 1
    22    10    24 1
    23    10    25 1
    24    10    26 1
    25    16    11 ar
    26    11    12 ar
    27    13    12 ar
    28    12    27 1
    29    14    13 ar
    30    13    28 1
    31    15    14 ar
    32    15    16 ar
    33    15    29 1
    34    16    30 1
@<TRIPOS>SUBSTRUCTURE
     1 ZOM         1 TEMP              0 ****  ****    0 ROOT
