@<TRIPOS>MOLECULE
ZON
   23    24     1     0     0
SMALL
bcc


@<TRIPOS>ATOM
      1 NAA        -0.1110   -0.0870   -0.4290 n4        1 ZON     -0.797500
      2 OAB         1.6190   -0.1820    1.4270 o         1 ZON     -0.532800
      3 OAC         2.2110   -1.0580   -0.7430 o         1 ZON     -0.532800
      4 CAD         6.7470    3.3030    1.5870 ca        1 ZON     -0.079000
      5 CAE         5.5100    3.3720    2.2490 ca        1 ZON     -0.116000
      6 CAF         6.8720    2.7380    0.3170 ca        1 ZON     -0.090000
      7 CAG         4.3380    2.8790    1.6780 ca        1 ZON     -0.076000
      8 CAH         2.0700    1.5200   -0.4290 c3        1 ZON     -0.345900
      9 NAI         4.2470    1.3330   -1.6580 nc        1 ZON     -0.315200
     10 OAJ         5.5080    1.6350   -1.5050 os        1 ZON      0.044400
     11 CAK         3.5320    1.6830   -0.5640 cd        1 ZON      0.266900
     12 CAL         5.6970    2.2520   -0.2400 ca        1 ZON      0.043100
     13 CAM         4.4270    2.3050    0.4120 ca        1 ZON     -0.217900
     14 SAN         1.7400   -0.0520    0.0620 s6        1 ZON      1.372900
     15 HNAA       -0.2730   -0.8260   -1.1150 hn        1 ZON      0.462467
     16 HNAB       -0.4550    0.7810   -0.8280 hn        1 ZON      0.462467
     17 HAF         7.8340    2.6810   -0.2120 ha        1 ZON      0.180000
     18 HAG         3.3800    2.9450    2.2120 ha        1 ZON      0.144000
     19 HAH         1.7240    2.2960    0.3210 h1        1 ZON      0.169700
     20 HAHA        1.5960    1.8390   -1.4050 h1        1 ZON      0.169700
     21 HAD         7.6450    3.7090    2.0840 ha        1 ZON      0.165000
     22 HAA3       -0.6840   -0.2970    0.3890 hn        1 ZON      0.462467
     23 HAE         5.4670    3.8310    3.2510 ha        1 ZON      0.161000
@<TRIPOS>BOND
     1    1   14 1   
     2    1   15 1   
     3    1   16 1   
     4    1   22 1   
     5    2   14 2   
     6    3   14 2   
     7    4    5 ar  
     8    4    6 ar  
     9    4   21 1   
    10    5    7 ar  
    11    5   23 1   
    12    6   12 ar  
    13    6   17 1   
    14    7   13 ar  
    15    7   18 1   
    16    8   11 1   
    17    8   14 1   
    18    8   19 1   
    19    8   20 1   
    20    9   10 1   
    21    9   11 2   
    22   10   12 1   
    23   11   13 1   
    24   12   13 ar  
@<TRIPOS>SUBSTRUCTURE
     1 ZON         1 TEMP              0 ****  ****    0 ROOT
