@<TRIPOS>MOLECULE
ZOO
   51    53     1     0     0
SMALL
bcc


@<TRIPOS>ATOM
      1 C1           0.0000     0.0000     0.0000 c3         1 ZOO       0.107300
      2 F1           5.0150     5.4210     3.8140 f          1 ZOO      -0.188300
      3 N1           1.4660     0.0000     0.0000 n          1 ZOO      -0.094300
      4 O1           1.8610    -0.0010     2.2640 o          1 ZOO      -0.509500
      5 C2           2.2340     0.0000     1.1100 c          1 ZOO       0.613500
      6 F2           6.6500     4.0100     4.4870 f          1 ZOO      -0.188300
      7 N2           3.5160     0.0000    -0.8630 n2         1 ZOO      -0.442900
      8 O2           6.3710     4.6300     2.3190 os         1 ZOO      -0.325900
      9 C3           3.6620    -0.0000     0.6010 c3         1 ZOO       0.172800
     10 F3           7.5580    -5.7170    -5.6960 f          1 ZOO      -0.252300
     11 N3           1.7360    -0.0120    -2.4060 nz         1 ZOO       0.047400
     12 C4           2.2460    -0.0060    -1.1290 c2         1 ZOO       0.129800
     13 F4           6.3610    -4.6270     2.3430 f          1 ZOO      -0.110900
     14 C5           4.3860     1.2390     1.0600 ca         1 ZOO      -0.086300
     15 C6           5.0860     2.0070     0.1490 ca         1 ZOO      -0.157000
     16 C7           5.7520     3.1430     0.5680 ca         1 ZOO      -0.080000
     17 C8           5.7170     3.5120     1.9040 ca         1 ZOO       0.046100
     18 C9           5.0150     2.7400     2.8170 ca         1 ZOO      -0.080000
     19 C10          4.3450     1.6080     2.3920 ca         1 ZOO      -0.157000
     20 C11          6.2920     4.9490     3.7090 c3         1 ZOO       0.568700
     21 C12          4.3870    -1.2390     1.0600 ca         1 ZOO      -0.140300
     22 C13          4.3480    -1.6070     2.3930 ca         1 ZOO      -0.009000
     23 C14          5.0090    -2.7430     2.8230 ca         1 ZOO      -0.117000
     24 C15          5.7150    -3.5180     1.9230 ca         1 ZOO       0.103900
     25 C16          5.7580    -3.1510     0.5740 ca         1 ZOO       0.037000
     26 C17          5.0820    -2.0070     0.1480 ca         1 ZOO      -0.069000
     27 C18          6.4860    -3.9480    -0.3660 cg         1 ZOO      -0.166000
     28 C19          7.0920    -4.5860    -1.1440 c1         1 ZOO      -0.133100
     29 C20          7.6030    -5.6500    -2.1060 c3         1 ZOO       0.085700
     30 C21          6.8590    -5.2260    -3.3210 c3         1 ZOO      -0.066400
     31 C22          7.6950    -6.2940    -4.3800 c3         1 ZOO       0.182900
     32 H1          -0.2340    -0.9430    -0.4780 h1         1 ZOO       0.036367
     33 H1A         -0.0550     0.9510    -0.5160 h1         1 ZOO       0.036367
     34 H1B         -0.2920    -0.0110     1.0430 h1         1 ZOO       0.036367
     35 HN3          2.2420     0.4040    -3.1630 hn         1 ZOO       0.265467
     36 HN3A         1.3920    -0.7930    -2.9280 hn         1 ZOO       0.265467
     37 H6           5.5630     1.6290    -0.7470 ha         1 ZOO       0.163500
     38 H7           6.3490     3.9080     0.0870 ha         1 ZOO       0.143500
     39 H9           5.2590     3.1270     3.7990 ha         1 ZOO       0.143500
     40 H10          3.6360     2.3990     2.1810 ha         1 ZOO       0.163500
     41 H11          6.6930     5.9440     3.8630 h3         1 ZOO       0.065700
     42 H13          3.6440    -0.9820     2.9290 ha         1 ZOO       0.153000
     43 H14          5.3740    -3.2950     3.6810 ha         1 ZOO       0.150000
     44 H17          4.9590    -2.0030    -0.9280 ha         1 ZOO       0.112000
     45 H20          7.4200    -6.5560    -1.5410 hc         1 ZOO       0.049200
     46 H20A         8.6150    -5.2790    -1.9990 hc         1 ZOO       0.049200
     47 H21          7.4160    -4.3590    -3.6570 hc         1 ZOO       0.050700
     48 H21A         5.7830    -5.3370    -3.2540 hc         1 ZOO       0.050700
     49 H22          7.1130    -7.1880    -4.1920 h1         1 ZOO       0.038700
     50 H22A         8.7530    -6.1560    -4.1920 h1         1 ZOO       0.038700
     51 H33          1.6150     0.9400    -2.6910 hn         1 ZOO       0.265467
@<TRIPOS>BOND
     1     1     3 1   
     2     1    32 1   
     3     1    33 1   
     4     1    34 1   
     5     2    20 1   
     6     3     5 1   
     7     3    12 1   
     8     4     5 2   
     9     5     9 1   
    10     6    20 1   
    11     7     9 1   
    12     7    12 2   
    13     8    17 1   
    14     8    20 1   
    15     9    14 1   
    16     9    21 1   
    17    10    31 1   
    18    11    12 1   
    19    11    35 1   
    20    11    36 1   
    21    11    51 1   
    22    13    24 1   
    23    14    15 ar  
    24    14    19 ar  
    25    15    16 ar  
    26    15    37 1   
    27    16    17 ar  
    28    16    38 1   
    29    17    18 ar  
    30    18    19 ar  
    31    18    39 1   
    32    19    40 1   
    33    20    41 1   
    34    21    22 ar  
    35    21    26 ar  
    36    22    23 ar  
    37    22    42 1   
    38    23    24 ar  
    39    23    43 1   
    40    24    25 ar  
    41    25    26 ar  
    42    25    27 1   
    43    26    44 1   
    44    27    28 3   
    45    28    29 1   
    46    29    30 1   
    47    29    45 1   
    48    29    46 1   
    49    30    31 1   
    50    30    47 1   
    51    30    48 1   
    52    31    49 1   
    53    31    50 1   
@<TRIPOS>SUBSTRUCTURE
     1 ZOO         1 TEMP              0 ****  ****    0 ROOT
