@<TRIPOS>MOLECULE
molecule
   71    75     1     0     0
SMALL
bcc


@<TRIPOS>ATOM
      1 CAJ          0.0000     0.0000     0.0000 c3         1 ZOP       0.161800
      2 CAL          1.5300     0.0000     0.0000 c3         1 ZOP      -0.077400
      3 CAW          2.0360     0.0000     1.4450 c3         1 ZOP      -0.082400
      4 CAV          1.4710    -1.2220     2.1750 c3         1 ZOP      -0.077400
      5 CAK         -0.0580    -1.1870     2.1110 c3         1 ZOP       0.161800
      6 NAI         -0.4910    -1.1880     0.7090 n3         1 ZOP      -0.724600
      7 CAH         -1.9530    -1.2940     0.6090 c3         1 ZOP       0.214100
      8 CAG         -2.3950    -2.6380     1.1280 ca         1 ZOP      -0.119300
      9 CAS         -2.7070    -2.7910     2.4670 ca         1 ZOP      -0.079000
     10 CAR         -3.1120    -4.0210     2.9460 ca         1 ZOP      -0.184500
     11 CAF         -2.4960    -3.7130     0.2640 ca         1 ZOP      -0.079000
     12 CAE         -2.9010    -4.9450     0.7360 ca         1 ZOP      -0.184500
     13 CAQ         -3.2090    -5.1050     2.0810 ca         1 ZOP       0.188600
     14 NAP         -3.6200    -6.3500     2.5630 nu         1 ZOP      -0.670400
     15 CAO         -3.8620    -7.3760     1.6880 ce         1 ZOP       0.303800
     16 CAN         -4.8970    -7.2290     0.6480 ca         1 ZOP      -0.101800
     17 CAM         -6.1930    -6.8380     0.9970 ca         1 ZOP      -0.095000
     18 CAC         -7.1550    -6.7020     0.0180 ca         1 ZOP      -0.135500
     19 CAA         -6.8400    -6.9500    -1.3060 ca         1 ZOP      -0.109000
     20 CAB         -5.5580    -7.3370    -1.6590 ca         1 ZOP      -0.135500
     21 CAD         -4.5840    -7.4720    -0.6920 ca         1 ZOP      -0.095000
     22 CBD         -3.1340    -8.5580     1.7820 cd         1 ZOP      -0.216400
     23 CBC         -3.3570    -9.8030     1.0220 ca         1 ZOP      -0.078800
     24 CBB         -4.2810   -10.1820     0.0490 ca         1 ZOP      -0.102000
     25 CBJ         -2.0180    -8.8120     2.6240 c          1 ZOP       0.721700
     26 OBK         -1.5240    -8.0160     3.4040 o          1 ZOP      -0.622500
     27 NBI         -1.5950   -10.0710     2.4210 ns         1 ZOP      -0.456100
     28 CBH         -2.3740   -10.7080     1.4610 ca         1 ZOP       0.038600
     29 CBG         -2.3330   -11.9800     0.9180 ca         1 ZOP      -0.144000
     30 CBF         -3.2630   -12.3500    -0.0550 ca         1 ZOP      -0.116600
     31 CBA         -4.2360   -11.4380    -0.4820 ca         1 ZOP      -0.100000
     32 OBE         -3.5250   -13.8790    -1.8000 o          1 ZOP      -0.603100
     33 CAX         -1.2280   -16.2320    -0.9600 c3         1 ZOP      -0.114100
     34 CAT         -2.6730   -16.0740    -0.4810 c3         1 ZOP       0.107000
     35 C21         -3.2200   -13.7050    -0.6350 c          1 ZOP       0.677700
     36 N25         -2.8450   -14.7520     0.1260 n          1 ZOP      -0.491800
     37 C29         -2.6080   -14.5680     1.5600 c3         1 ZOP       0.090300
     38 HAJ1        -0.3600     0.8910     0.5000 h1         1 ZOP       0.033200
     39 HAJ2        -0.3590    -0.0170    -1.0220 h1         1 ZOP       0.033200
     40 HAL1         1.8910     0.8860    -0.5080 hc         1 ZOP       0.048200
     41 HAL2         1.8910    -0.8860    -0.5080 hc         1 ZOP       0.048200
     42 HAW1         3.1180    -0.0460     1.4490 hc         1 ZOP       0.038700
     43 HAW2         1.7040     0.9030     1.9440 hc         1 ZOP       0.038700
     44 HAV1         1.8310    -2.1250     1.6980 hc         1 ZOP       0.048200
     45 HAV2         1.7890    -1.2020     3.2110 hc         1 ZOP       0.048200
     46 HAK1        -0.4590    -2.0600     2.6120 h1         1 ZOP       0.033200
     47 HAK2        -0.4180    -0.2880     2.5980 h1         1 ZOP       0.033200
     48 HAH1        -2.4120    -0.5100     1.1990 h1         1 ZOP       0.036700
     49 HAH2        -2.2520    -1.1910    -0.4260 h1         1 ZOP       0.036700
     50 HAS         -2.6310    -1.9460     3.1400 ha         1 ZOP       0.133000
     51 HAF         -2.2550    -3.5870    -0.7850 ha         1 ZOP       0.133000
     52 HAR         -3.3540    -4.1420     3.9960 ha         1 ZOP       0.135500
     53 HAE         -2.9770    -5.7870     0.0580 ha         1 ZOP       0.135500
     54 HAM         -6.4420    -6.6430     2.0330 ha         1 ZOP       0.142500
     55 HAD         -3.5820    -7.7750    -0.9690 ha         1 ZOP       0.142500
     56 HAC         -8.1600    -6.3990     0.2870 ha         1 ZOP       0.137500
     57 HAA         -7.6000    -6.8430    -2.0700 ha         1 ZOP       0.134000
     58 HAB         -5.3180    -7.5270    -2.6980 ha         1 ZOP       0.137500
     59 HBB         -5.0360    -9.4800    -0.2830 ha         1 ZOP       0.152000
     60 HBA         -4.9550   -11.7310    -1.2380 ha         1 ZOP       0.154000
     61 HBI         -0.8210   -10.4930     2.8950 hn         1 ZOP       0.339500
     62 HBG         -1.5800   -12.6870     1.2470 ha         1 ZOP       0.144000
     63 HAX1        -0.9670   -15.3980    -1.5990 hc         1 ZOP       0.041367
     64 HAX2        -1.1310   -17.1570    -1.5150 hc         1 ZOP       0.041367
     65 HAX3        -0.5650   -16.2530    -0.1040 hc         1 ZOP       0.041367
     66 HAT1        -2.8960   -16.8400     0.2520 h1         1 ZOP       0.059200
     67 HAT2        -3.3450   -16.1750    -1.3240 h1         1 ZOP       0.059200
     68 H291        -3.2660   -13.7950     1.9380 h1         1 ZOP       0.041033
     69 H292        -1.5780   -14.2770     1.7220 h1         1 ZOP       0.041033
     70 H293        -2.8070   -15.4970     2.0810 h1         1 ZOP       0.041033
     71 HAP         -3.7700    -6.4830     3.5430 hn         1 ZOP       0.465800
@<TRIPOS>BOND
     1     1     2 1
     2     1     6 1
     3     2     3 1
     4     3     4 1
     5     4     5 1
     6     5     6 1
     7     6     7 1
     8     7     8 1
     9     8     9 ar
    10     8    11 ar
    11     9    10 ar
    12    10    13 ar
    13    11    12 ar
    14    12    13 ar
    15    13    14 1
    16    14    15 1
    17    15    16 1
    18    15    22 2
    19    16    17 ar
    20    16    21 ar
    21    17    18 ar
    22    18    19 ar
    23    19    20 ar
    24    20    21 ar
    25    22    23 1
    26    22    25 1
    27    23    24 ar
    28    23    28 ar
    29    24    31 ar
    30    25    26 2
    31    25    27 1
    32    27    28 1
    33    28    29 ar
    34    29    30 ar
    35    30    31 ar
    36    30    35 1
    37    32    35 2
    38    33    34 1
    39    34    36 1
    40    35    36 1
    41    36    37 1
    42     1    38 1
    43     1    39 1
    44     2    40 1
    45     2    41 1
    46     3    42 1
    47     3    43 1
    48     4    44 1
    49     4    45 1
    50     5    46 1
    51     5    47 1
    52     7    48 1
    53     7    49 1
    54     9    50 1
    55    11    51 1
    56    10    52 1
    57    12    53 1
    58    17    54 1
    59    21    55 1
    60    18    56 1
    61    19    57 1
    62    20    58 1
    63    24    59 1
    64    31    60 1
    65    27    61 1
    66    29    62 1
    67    33    63 1
    68    33    64 1
    69    33    65 1
    70    34    66 1
    71    34    67 1
    72    37    68 1
    73    37    69 1
    74    37    70 1
    75    14    71 1
@<TRIPOS>SUBSTRUCTURE
     1 ZOP         1 TEMP              0 ****  ****    0 ROOT
