@<TRIPOS>MOLECULE
ZOP
   71    75     1     0     0
SMALL
bcc


@<TRIPOS>ATOM
      1 CAJ          0.0000     0.0000     0.0000 c3         1 ZOP       0.146300
      2 CAL          1.5300     0.0000     0.0000 c3         1 ZOP      -0.023400
      3 CAW          2.0360     0.0000     1.4450 c3         1 ZOP      -0.027400
      4 CAV          1.4710    -1.2220     2.1750 c3         1 ZOP      -0.023400
      5 CAK         -0.0580    -1.1870     2.1110 c3         1 ZOP       0.146300
      6 NAI         -0.4910    -1.1880     0.7090 n3         1 ZOP      -0.533600
      7 CAH         -1.9530    -1.2940     0.6090 c3         1 ZOP       0.217100
      8 CAG         -2.3950    -2.6380     1.1280 ca         1 ZOP      -0.131300
      9 CAS         -2.7070    -2.7910     2.4670 ca         1 ZOP      -0.049000
     10 CAR         -3.1120    -4.0210     2.9460 ca         1 ZOP      -0.164500
     11 CAF         -2.4960    -3.7130     0.2640 ca         1 ZOP      -0.049000
     12 CAE         -2.9010    -4.9450     0.7360 ca         1 ZOP      -0.164500
     13 CAQ         -3.2090    -5.1050     2.0810 ca         1 ZOP       0.033600
     14 NAP         -3.6200    -6.3500     2.5630 nu         1 ZOP      -0.199400
     15 CAO         -3.8620    -7.3760     1.6880 ce         1 ZOP       0.167800
     16 CAN         -4.8970    -7.2290     0.6480 ca         1 ZOP      -0.099800
     17 CAM         -6.1930    -6.8380     0.9970 ca         1 ZOP      -0.073000
     18 CAC         -7.1550    -6.7020     0.0180 ca         1 ZOP      -0.105000
     19 CAA         -6.8400    -6.9500    -1.3060 ca         1 ZOP      -0.083000
     20 CAB         -5.5580    -7.3370    -1.6590 ca         1 ZOP      -0.105000
     21 CAD         -4.5840    -7.4720    -0.6920 ca         1 ZOP      -0.073000
     22 CBD         -3.1340    -8.5580     1.7820 cd         1 ZOP      -0.228400
     23 CBC         -3.3570    -9.8030     1.0220 ca         1 ZOP      -0.067800
     24 CBB         -4.2810   -10.1820     0.0490 ca         1 ZOP      -0.091000
     25 CBJ         -2.0180    -8.8120     2.6240 c          1 ZOP       0.624700
     26 OBK         -1.5240    -8.0160     3.4040 o          1 ZOP      -0.674500
     27 NBI         -1.5950   -10.0710     2.4210 ns         1 ZOP       0.004900
     28 CBH         -2.3740   -10.7080     1.4610 ca         1 ZOP      -0.119400
     29 CBG         -2.3330   -11.9800     0.9180 ca         1 ZOP      -0.121000
     30 CBF         -3.2630   -12.3500    -0.0550 ca         1 ZOP      -0.127600
     31 CBA         -4.2360   -11.4380    -0.4820 ca         1 ZOP      -0.064000
     32 OBE         -3.5250   -13.8790    -1.8000 o          1 ZOP      -0.644100
     33 CAX         -1.2280   -16.2320    -0.9600 c3         1 ZOP      -0.016100
     34 CAT         -2.6730   -16.0740    -0.4810 c3         1 ZOP       0.052000
     35 C21         -3.2200   -13.7050    -0.6350 c          1 ZOP       0.611700
     36 N25         -2.8450   -14.7520     0.1260 n          1 ZOP      -0.155800
     37 C29         -2.6080   -14.5680     1.5600 c3         1 ZOP       0.064300
     38 HAJ1        -0.3600     0.8910     0.5000 h1         1 ZOP       0.010200
     39 HAJ2        -0.3600    -0.0170    -1.0220 h1         1 ZOP       0.010200
     40 HAL1         1.8910    -0.8860    -0.5080 hc         1 ZOP       0.019200
     41 HAL2         1.8910     0.8860    -0.5080 hc         1 ZOP       0.019200
     42 HAW1         3.1180    -0.0460     1.4490 hc         1 ZOP       0.011200
     43 HAW2         1.7040     0.9030     1.9440 hc         1 ZOP       0.011200
     44 HAV1         1.7890    -1.2020     3.2110 hc         1 ZOP       0.019200
     45 HAV2         1.8310    -2.1250     1.6980 hc         1 ZOP       0.019200
     46 HAK1        -0.4590    -2.0600     2.6120 h1         1 ZOP       0.010200
     47 HAK2        -0.4180    -0.2880     2.5980 h1         1 ZOP       0.010200
     48 HAH1        -2.2520    -1.1910    -0.4260 h1         1 ZOP       0.009200
     49 HAH2        -2.4120    -0.5100     1.1990 h1         1 ZOP       0.009200
     50 HAS         -2.6310    -1.9460     3.1400 ha         1 ZOP       0.105500
     51 HAF         -2.2550    -3.5870    -0.7850 ha         1 ZOP       0.105500
     52 HAR         -3.3540    -4.1420     3.9960 ha         1 ZOP       0.116500
     53 HAE         -2.9770    -5.7870     0.0580 ha         1 ZOP       0.116500
     54 HAM         -6.4420    -6.6430     2.0330 ha         1 ZOP       0.114500
     55 HAD         -3.5820    -7.7750    -0.9690 ha         1 ZOP       0.114500
     56 HAC         -8.1600    -6.3990     0.2870 ha         1 ZOP       0.108500
     57 HAA         -7.6000    -6.8430    -2.0700 ha         1 ZOP       0.105000
     58 HAB         -5.3180    -7.5270    -2.6980 ha         1 ZOP       0.108500
     59 HBB         -5.0360    -9.4800    -0.2830 ha         1 ZOP       0.133000
     60 HBA         -4.9550   -11.7310    -1.2380 ha         1 ZOP       0.124000
     61 HBI         -0.8210   -10.4930     2.8950 hn         1 ZOP       0.175500
     62 HBG         -1.5800   -12.6870     1.2470 ha         1 ZOP       0.126000
     63 HAX1        -0.9570   -15.3830    -1.5750 hc         1 ZOP       0.008700
     64 HAX2        -0.5680   -16.2820    -0.1030 hc         1 ZOP       0.008700
     65 HAX3        -1.1380   -17.1430    -1.5390 hc         1 ZOP       0.008700
     66 HAT1        -2.8960   -16.8400     0.2520 h1         1 ZOP       0.031200
     67 HAT2        -3.3450   -16.1750    -1.3240 h1         1 ZOP       0.031200
     68 H291        -3.2660   -13.7950     1.9380 h1         1 ZOP       0.014700
     69 H292        -1.5780   -14.2770     1.7220 h1         1 ZOP       0.014700
     70 H293        -2.8070   -15.4970     2.0810 h1         1 ZOP       0.014700
     71 HAP         -3.7750    -6.4810     3.5430 hn         1 ZOP       0.300800
@<TRIPOS>BOND
     1     1     2 1   
     2     1     6 1   
     3     1    38 1   
     4     1    39 1   
     5     2     3 1   
     6     2    40 1   
     7     2    41 1   
     8     3     4 1   
     9     3    42 1   
    10     3    43 1   
    11     4     5 1   
    12     4    44 1   
    13     4    45 1   
    14     5     6 1   
    15     5    46 1   
    16     5    47 1   
    17     6     7 1   
    18     7     8 1   
    19     7    48 1   
    20     7    49 1   
    21     8     9 ar  
    22     8    11 ar  
    23     9    10 ar  
    24     9    50 1   
    25    10    13 ar  
    26    10    52 1   
    27    11    12 ar  
    28    11    51 1   
    29    12    13 ar  
    30    12    53 1   
    31    13    14 1   
    32    14    15 1   
    33    14    71 1   
    34    15    16 1   
    35    15    22 2   
    36    16    17 ar  
    37    16    21 ar  
    38    17    18 ar  
    39    17    54 1   
    40    18    19 ar  
    41    18    56 1   
    42    19    20 ar  
    43    19    57 1   
    44    20    21 ar  
    45    20    58 1   
    46    21    55 1   
    47    22    23 1   
    48    22    25 1   
    49    23    24 ar  
    50    23    28 ar  
    51    24    31 ar  
    52    24    59 1   
    53    25    26 2   
    54    25    27 1   
    55    27    28 1   
    56    27    61 1   
    57    28    29 ar  
    58    29    30 ar  
    59    29    62 1   
    60    30    31 ar  
    61    30    35 1   
    62    31    60 1   
    63    32    35 2   
    64    33    34 1   
    65    33    63 1   
    66    33    64 1   
    67    33    65 1   
    68    34    36 1   
    69    34    66 1   
    70    34    67 1   
    71    35    36 1   
    72    36    37 1   
    73    37    68 1   
    74    37    69 1   
    75    37    70 1   
@<TRIPOS>SUBSTRUCTURE
     1 ZOP         1 TEMP              0 ****  ****    0 ROOT
