@<TRIPOS>MOLECULE
molecule
   44    47     1     0     0
SMALL
bcc


@<TRIPOS>ATOM
      1 C01          0.0000     0.0000     0.0000 c3         1 ZPC       0.153100
      2 N02          1.4690     0.0000     0.0000 n3         1 ZPC      -0.732600
      3 C03          1.9960     0.0000     1.3710 c3         1 ZPC       0.143800
      4 C04          3.5170     0.1820     1.3300 c3         1 ZPC       0.117000
      5 N05          4.0870    -0.8450     0.4450 n          1 ZPC      -0.473800
      6 C06          3.5160    -0.9970    -0.9020 c3         1 ZPC       0.117000
      7 C07          1.9950    -1.1320    -0.7730 c3         1 ZPC       0.143800
      8 C08          5.1060    -1.6250     0.8570 c          1 ZPC       0.758100
      9 O09          5.5650    -1.4860     1.9730 o          1 ZPC      -0.604000
     10 O10          5.6140    -2.5590     0.0310 os         1 ZPC      -0.438900
     11 C11          6.7710    -3.2970     0.5040 c3         1 ZPC       0.296200
     12 N12          6.7530    -4.6630    -0.0310 n          1 ZPC      -0.456300
     13 C13          7.8550    -4.8510    -0.7770 c          1 ZPC       0.611000
     14 O14          8.1330    -5.8800    -1.3590 o          1 ZPC      -0.512500
     15 C15          8.6800    -3.6240    -0.7870 ca         1 ZPC       0.257500
     16 N16          9.8380    -3.3290    -1.3720 nb         1 ZPC      -0.591000
     17 C17         10.3680    -2.1320    -1.2150 ca         1 ZPC       0.304900
     18 C18          9.7240    -1.1780    -0.4410 ca         1 ZPC       0.319900
     19 N19          8.5730    -1.4650     0.1440 nb         1 ZPC      -0.615000
     20 C20          8.0380    -2.6580    -0.0100 ca         1 ZPC       0.285300
     21 C21          5.7550    -5.6090     0.1970 ca         1 ZPC       0.580200
     22 N22          5.8780    -6.8260    -0.3120 nb         1 ZPC      -0.683000
     23 C23          4.9580    -7.7520    -0.1200 ca         1 ZPC       0.468200
     24 C24          3.8250    -7.4820     0.6230 ca         1 ZPC      -0.131900
     25 Cl           2.6220    -8.7100     0.8670 cl         1 ZPC      -0.094400
     26 C26          3.6580    -6.2160     1.1730 ca         1 ZPC      -0.061000
     27 C27          4.6430    -5.2690     0.9590 ca         1 ZPC      -0.274300
     28 H01         -0.3620     0.0230    -1.0210 h1         1 ZPC       0.034700
     29 H01A        -0.3610    -0.8960     0.4900 h1         1 ZPC       0.034700
     30 H01B        -0.3620     0.8720     0.5310 h1         1 ZPC       0.034700
     31 H03          1.5500     0.8160     1.9280 h1         1 ZPC       0.044200
     32 H03A         1.7580    -0.9430     1.8480 h1         1 ZPC       0.044200
     33 H04          3.9230     0.0670     2.3280 h1         1 ZPC       0.069450
     34 H04A         3.7540     1.1660     0.9450 h1         1 ZPC       0.069450
     35 H06          3.7530    -0.1240    -1.4980 h1         1 ZPC       0.069450
     36 H06A         3.9210    -1.8860    -1.3700 h1         1 ZPC       0.069450
     37 H07          1.7580    -2.0580    -0.2630 h1         1 ZPC       0.044200
     38 H07A         1.5490    -1.1320    -1.7600 h1         1 ZPC       0.044200
     39 H11          6.7840    -3.3250     1.5870 h2         1 ZPC       0.117700
     40 H17         11.3100    -1.8930    -1.6930 h4         1 ZPC       0.043100
     41 H18         10.1640    -0.1960    -0.3160 h4         1 ZPC       0.043100
     42 H23          5.0930    -8.7360    -0.5520 h4         1 ZPC       0.045100
     43 H26          2.7800    -5.9790     1.7610 ha         1 ZPC       0.155000
     44 H27          4.5450    -4.2730     1.3730 ha         1 ZPC       0.152000
@<TRIPOS>BOND
     1     1     2 1
     2     2     3 1
     3     2     7 1
     4     3     4 1
     5     4     5 1
     6     5     6 1
     7     5     8 1
     8     6     7 1
     9     8     9 2
    10     8    10 1
    11    10    11 1
    12    11    12 1
    13    11    20 1
    14    12    13 1
    15    12    21 1
    16    13    14 2
    17    13    15 1
    18    15    16 ar
    19    15    20 ar
    20    16    17 ar
    21    17    18 ar
    22    18    19 ar
    23    19    20 ar
    24    21    22 ar
    25    21    27 ar
    26    22    23 ar
    27    23    24 ar
    28    24    25 1
    29    24    26 ar
    30    26    27 ar
    31     1    28 1
    32     1    29 1
    33     1    30 1
    34     3    31 1
    35     3    32 1
    36     4    33 1
    37     4    34 1
    38     6    35 1
    39     6    36 1
    40     7    37 1
    41     7    38 1
    42    11    39 1
    43    17    40 1
    44    18    41 1
    45    23    42 1
    46    26    43 1
    47    27    44 1
@<TRIPOS>SUBSTRUCTURE
     1 ZPC         1 TEMP              0 ****  ****    0 ROOT
