@<TRIPOS>MOLECULE
ZPC
   44    47     1     0     0
SMALL
bcc


@<TRIPOS>ATOM
      1 C01          0.0000     0.0000     0.0000 c3         1 ZPC       0.190100
      2 N02          1.4690     0.0000     0.0000 n3         1 ZPC      -0.544600
      3 C03          1.9960     0.0000     1.3710 c3         1 ZPC       0.136800
      4 C04          3.5170     0.1820     1.3300 c3         1 ZPC       0.054000
      5 N05          4.0870    -0.8450     0.4450 n          1 ZPC      -0.129800
      6 C06          3.5160    -0.9970    -0.9020 c3         1 ZPC       0.054000
      7 C07          1.9950    -1.1320    -0.7730 c3         1 ZPC       0.136800
      8 C08          5.1060    -1.6250     0.8570 c          1 ZPC       0.699100
      9 O09          5.5650    -1.4860     1.9730 o          1 ZPC      -0.649000
     10 O10          5.6140    -2.5590     0.0310 os         1 ZPC      -0.418900
     11 C11          6.7710    -3.2970     0.5040 c3         1 ZPC       0.209200
     12 N12          6.7530    -4.6630    -0.0310 n          1 ZPC      -0.079300
     13 C13          7.8550    -4.8510    -0.7770 c          1 ZPC       0.522000
     14 O14          8.1330    -5.8800    -1.3590 o          1 ZPC      -0.563500
     15 C15          8.6800    -3.6240    -0.7870 ca         1 ZPC       0.201500
     16 N16          9.8380    -3.3290    -1.3720 nb         1 ZPC      -0.464000
     17 C17         10.3680    -2.1320    -1.2150 ca         1 ZPC       0.282900
     18 C18          9.7240    -1.1780    -0.4410 ca         1 ZPC       0.298900
     19 N19          8.5730    -1.4650     0.1440 nb         1 ZPC      -0.491000
     20 C20          8.0380    -2.6580    -0.0100 ca         1 ZPC       0.227300
     21 C21          5.7550    -5.6090     0.1970 ca         1 ZPC       0.396200
     22 N22          5.8780    -6.8260    -0.3120 nb         1 ZPC      -0.558000
     23 C23          4.9580    -7.7520    -0.1200 ca         1 ZPC       0.440200
     24 C24          3.8250    -7.4820     0.6230 ca         1 ZPC      -0.192900
     25 Cl           2.6220    -8.7100     0.8670 cl         1 ZPC      -0.004400
     26 C26          3.6580    -6.2160     1.1730 ca         1 ZPC      -0.036000
     27 C27          4.6430    -5.2690     0.9590 ca         1 ZPC      -0.257300
     28 H01         -0.3620     0.0230    -1.0210 h1         1 ZPC       0.002700
     29 H01A        -0.3610    -0.8960     0.4900 h1         1 ZPC       0.002700
     30 H01B        -0.3620     0.8720     0.5310 h1         1 ZPC       0.002700
     31 H03          1.5500     0.8160     1.9280 h1         1 ZPC       0.017450
     32 H03A         1.7580    -0.9430     1.8480 h1         1 ZPC       0.017450
     33 H04          3.9230     0.0670     2.3280 h1         1 ZPC       0.039450
     34 H04A         3.7540     1.1660     0.9450 h1         1 ZPC       0.039450
     35 H06          3.7530    -0.1240    -1.4980 h1         1 ZPC       0.039450
     36 H06A         3.9210    -1.8860    -1.3700 h1         1 ZPC       0.039450
     37 H07          1.7580    -2.0580    -0.2630 h1         1 ZPC       0.017450
     38 H07A         1.5490    -1.1320    -1.7600 h1         1 ZPC       0.017450
     39 H11          6.7840    -3.3250     1.5870 h2         1 ZPC       0.072700
     40 H17         11.3100    -1.8930    -1.6930 h4         1 ZPC      -0.003900
     41 H18         10.1640    -0.1960    -0.3160 h4         1 ZPC      -0.004900
     42 H23          5.0930    -8.7360    -0.5520 h4         1 ZPC      -0.005900
     43 H26          2.7800    -5.9790     1.7610 ha         1 ZPC       0.119000
     44 H27          4.5450    -4.2730     1.3730 ha         1 ZPC       0.130000
@<TRIPOS>BOND
     1     1     2 1   
     2     1    28 1   
     3     1    29 1   
     4     1    30 1   
     5     2     3 1   
     6     2     7 1   
     7     3     4 1   
     8     3    31 1   
     9     3    32 1   
    10     4     5 1   
    11     4    33 1   
    12     4    34 1   
    13     5     6 1   
    14     5     8 1   
    15     6     7 1   
    16     6    35 1   
    17     6    36 1   
    18     7    37 1   
    19     7    38 1   
    20     8     9 2   
    21     8    10 1   
    22    10    11 1   
    23    11    12 1   
    24    11    20 1   
    25    11    39 1   
    26    12    13 1   
    27    12    21 1   
    28    13    14 2   
    29    13    15 1   
    30    15    16 ar  
    31    15    20 ar  
    32    16    17 ar  
    33    17    18 ar  
    34    17    40 1   
    35    18    19 ar  
    36    18    41 1   
    37    19    20 ar  
    38    21    22 ar  
    39    21    27 ar  
    40    22    23 ar  
    41    23    24 ar  
    42    23    42 1   
    43    24    25 1   
    44    24    26 ar  
    45    26    27 ar  
    46    26    43 1   
    47    27    44 1   
@<TRIPOS>SUBSTRUCTURE
     1 ZPC         1 TEMP              0 ****  ****    0 ROOT
