@<TRIPOS>MOLECULE
ZPE
  116   115     1     0     0
SMALL
bcc


@<TRIPOS>ATOM
      1 N           1.4530   -0.2510    2.0540 n3        1 ZPE     -0.908800
      2 P           1.9660   -3.0310    4.4440 p5        1 ZPE      1.443800
      3 C'          1.2820   -6.3580    6.7730 c         1 ZPE      0.669100
      4 O'          1.8500   -6.3310    7.8700 o         1 ZPE     -0.586000
      5 C1          1.2400   -3.3300    6.9190 c3        1 ZPE      0.174400
      6 C2          0.1610   -4.3300    7.3670 c3        1 ZPE      0.114100
      7 O2          0.2150   -5.5210    6.5690 os        1 ZPE     -0.418900
      8 C3         -1.2650   -3.7910    7.2600 c3        1 ZPE      0.154400
      9 O3         -1.7160   -3.9050    5.9100 os        1 ZPE     -0.407900
     10 C4          1.2850   -2.7910    1.9670 c3        1 ZPE      0.158400
     11 C5          0.8520   -1.4090    1.4420 c3        1 ZPE      0.134800
     12 CB         -2.3220   -2.8170    5.3430 c         1 ZPE      0.658100
     13 OB         -2.7200   -1.9080    6.0780 o         1 ZPE     -0.579000
     14 C1'         1.5780   -7.1990    5.5760 c3        1 ZPE     -0.155400
     15 C1B        -2.4280   -2.9470    3.8570 c3        1 ZPE     -0.146400
     16 O1P         2.5020   -4.3960    4.6200 o         1 ZPE     -0.841000
     17 C2'         2.3120   -8.4670    5.9440 c3        1 ZPE     -0.069400
     18 C2B        -3.4920   -2.0300    3.2960 c3        1 ZPE     -0.073400
     19 O2P         2.7760   -1.8310    4.1640 o         1 ZPE     -0.841000
     20 C3'         2.7950   -9.1810    4.6980 c3        1 ZPE     -0.054200
     21 C3B        -3.4810   -2.0590    1.7830 c3        1 ZPE     -0.080400
     22 O3P         0.9510   -2.7140    5.7080 os        1 ZPE     -0.559200
     23 C4'         3.4870  -10.4530    5.0110 c2        1 ZPE     -0.155200
     24 C4B        -4.5550   -1.1590    1.2100 c3        1 ZPE     -0.077400
     25 O4P         0.8100   -3.0290    3.2560 os        1 ZPE     -0.576200
     26 C5'         3.9000  -11.3240    4.0830 c2        1 ZPE     -0.195200
     27 C5B        -4.5350   -1.1760   -0.3030 c3        1 ZPE     -0.079400
     28 C6'         3.7080  -11.1240    2.6280 c3        1 ZPE     -0.047200
     29 C6B        -5.6140   -0.2820   -0.8770 c3        1 ZPE     -0.078400
     30 C7'         4.3740  -12.2080    1.8060 c3        1 ZPE     -0.075400
     31 C7B        -5.5900   -0.2950   -2.3910 c3        1 ZPE     -0.079400
     32 C8'         4.1660  -11.9760    0.3250 c3        1 ZPE     -0.080400
     33 C8B        -6.6720    0.5940   -2.9660 c3        1 ZPE     -0.077400
     34 C9'         4.8300  -13.0580   -0.5000 c3        1 ZPE     -0.078400
     35 C9B        -6.6430    0.5810   -4.4800 c3        1 ZPE     -0.051200
     36 CA'         4.6220  -12.8260   -1.9810 c3        1 ZPE     -0.079400
     37 CAA        -7.6970    1.4380   -5.0720 c2        1 ZPE     -0.167200
     38 CB'         5.2850  -13.9070   -2.8060 c3        1 ZPE     -0.078400
     39 CBA        -7.8820    1.5860   -6.3880 c2        1 ZPE     -0.182200
     40 CC'         5.0780  -13.6750   -4.2880 c3        1 ZPE     -0.080400
     41 CCA        -7.0560    0.9100   -7.4150 c3        1 ZPE     -0.048200
     42 CD'         5.7370  -14.7490   -5.1140 c3        1 ZPE     -0.091100
     43 CDA        -7.4870    1.2630   -8.8240 c3        1 ZPE     -0.076400
     44 CEA        -6.6260    0.5590   -9.8510 c3        1 ZPE     -0.080400
     45 CFA        -7.0540    0.9110  -11.2590 c3        1 ZPE     -0.078400
     46 CGA        -6.1940    0.2080  -12.2880 c3        1 ZPE     -0.080400
     47 CHA        -6.6160    0.5540  -13.6930 c3        1 ZPE     -0.092100
     48 HN          2.4370   -0.4050    2.1920 hn        1 ZPE      0.360800
     49 HNA         1.0560   -0.0990    2.9640 hn        1 ZPE      0.360800
     50 H1          1.2940   -2.5260    7.7100 h1        1 ZPE      0.038700
     51 H1A         2.2230   -3.8810    6.8630 h1        1 ZPE      0.038700
     52 H2          0.3590   -4.5980    8.4440 h1        1 ZPE      0.054700
     53 H3         -1.2810   -2.7260    7.6090 h1        1 ZPE      0.054200
     54 H3A        -1.9650   -4.4180    7.8730 h1        1 ZPE      0.054200
     55 H4          0.8410   -3.5750    1.2890 h1        1 ZPE      0.017700
     56 H4A         2.4070   -2.8780    1.9410 h1        1 ZPE      0.017700
     57 H5         -0.2670   -1.3330    1.5470 h1        1 ZPE      0.026700
     58 H5A         1.1030   -1.3790    0.3440 h1        1 ZPE      0.026700
     59 H1'         0.6260   -7.4280    5.0300 hc        1 ZPE      0.115700
     60 H1'A        2.2060   -6.5370    4.9000 hc        1 ZPE      0.115700
     61 H1B        -1.4100   -2.6960    3.4330 hc        1 ZPE      0.104200
     62 H1BA       -2.6400   -4.0150    3.5930 hc        1 ZPE      0.104200
     63 H2'         3.1850   -8.2140    6.6030 hc        1 ZPE      0.045700
     64 H2'A        1.6380   -9.1430    6.5320 hc        1 ZPE      0.045700
     65 H2B        -4.5000   -2.3410    3.6760 hc        1 ZPE      0.046700
     66 H2BA       -3.3110   -0.9840    3.6610 hc        1 ZPE      0.046700
     67 H3'         1.9220   -9.3850    4.0180 hc        1 ZPE      0.054700
     68 H3'A        3.4940   -8.5060    4.1290 hc        1 ZPE      0.054700
     69 H3B        -3.6390   -3.1110    1.4240 hc        1 ZPE      0.044200
     70 H3BA       -2.4740   -1.7310    1.4100 hc        1 ZPE      0.044200
     71 H4'         3.6600  -10.6560    6.0800 ha        1 ZPE      0.120000
     72 H4B        -5.5610   -1.4920    1.5780 hc        1 ZPE      0.037700
     73 H4BA       -4.3990   -0.1100    1.5770 hc        1 ZPE      0.037700
     74 H5'         4.4150  -12.2520    4.3800 ha        1 ZPE      0.112000
     75 H5B        -4.6820   -2.2260   -0.6690 hc        1 ZPE      0.041200
     76 H5BA       -3.5300   -0.8360   -0.6690 hc        1 ZPE      0.041200
     77 H6'         2.6070  -11.1010    2.3970 hc        1 ZPE      0.050200
     78 H6'A        4.1180  -10.1200    2.3300 hc        1 ZPE      0.050200
     79 H6B        -5.4680    0.7670   -0.5080 hc        1 ZPE      0.038200
     80 H6BA       -6.6190   -0.6240   -0.5140 hc        1 ZPE      0.038200
     81 H7'         5.4720  -12.2300    2.0330 hc        1 ZPE      0.036700
     82 H7'A        3.9560  -13.2090    2.0930 hc        1 ZPE      0.036700
     83 H7B        -5.7290   -1.3450   -2.7600 hc        1 ZPE      0.039700
     84 H7BA       -4.5860    0.0520   -2.7530 hc        1 ZPE      0.039700
     85 H8'         4.5840  -10.9750    0.0390 hc        1 ZPE      0.041700
     86 H8'A        3.0670  -11.9510    0.0990 hc        1 ZPE      0.041700
     87 H8B        -6.5330    1.6430   -2.5950 hc        1 ZPE      0.040200
     88 H8BA       -7.6760    0.2450   -2.6050 hc        1 ZPE      0.040200
     89 H9'         5.9280  -13.0830   -0.2740 hc        1 ZPE      0.036700
     90 H9'A        4.4110  -14.0590   -0.2140 hc        1 ZPE      0.036700
     91 H9B        -6.7680   -0.4740   -4.8490 hc        1 ZPE      0.048200
     92 H9BA       -5.6350    0.9280   -4.8390 hc        1 ZPE      0.048200
     93 HA'         5.0410  -11.8250   -2.2660 hc        1 ZPE      0.040700
     94 HA'A        3.5230  -12.8000   -2.2070 hc        1 ZPE      0.040700
     95 HAA        -8.3450    1.9700   -4.3550 ha        1 ZPE      0.121000
     96 HB'         4.8670  -14.9080   -2.5210 hc        1 ZPE      0.037200
     97 HB'A        6.3840  -13.9320   -2.5800 hc        1 ZPE      0.037200
     98 HBA        -8.6850    2.2400   -6.7670 ha        1 ZPE      0.118000
     99 HC'         5.4960  -12.6730   -4.5710 hc        1 ZPE      0.039200
    100 HC'A        3.9790  -13.6480   -4.5120 hc        1 ZPE      0.039200
    101 HCA        -5.9760    1.1910   -7.2700 hc        1 ZPE      0.048200
    102 HCAA       -7.1190   -0.2040   -7.2710 hc        1 ZPE      0.048200
    103 HD'         6.8370  -14.7750   -4.9230 hc        1 ZPE      0.030367
    104 HD'A        5.5720  -14.5590   -6.2020 hc        1 ZPE      0.030367
    105 HD'B        5.3160  -15.7530   -4.8640 hc        1 ZPE      0.030367
    106 HDA        -7.4170    2.3730   -8.9710 hc        1 ZPE      0.039200
    107 HDAA       -8.5610    0.9760   -8.9720 hc        1 ZPE      0.039200
    108 HEA        -6.6950   -0.5500   -9.7030 hc        1 ZPE      0.040200
    109 HEAA       -5.5520    0.8460   -9.7010 hc        1 ZPE      0.040200
    110 HFA        -8.1280    0.6240  -11.4090 hc        1 ZPE      0.038200
    111 HFAA       -6.9850    2.0210  -11.4080 hc        1 ZPE      0.038200
    112 HGA        -6.2630   -0.9020  -12.1370 hc        1 ZPE      0.039200
    113 HGAA       -5.1200    0.4950  -12.1360 hc        1 ZPE      0.039200
    114 HHA        -6.5300    1.6530  -13.8700 hc        1 ZPE      0.031033
    115 HHAA       -7.6760    0.2530  -13.8710 hc        1 ZPE      0.031033
    116 HHAB       -5.9700    0.0260  -14.4340 hc        1 ZPE      0.031033
@<TRIPOS>BOND
     1    1   11 1   
     2    1   48 1   
     3    1   49 1   
     4    2   16 1   
     5    2   19 1   
     6    2   22 1   
     7    2   25 1   
     8    3    4 2   
     9    3    7 1   
    10    3   14 1   
    11    5    6 1   
    12    5   22 1   
    13    5   50 1   
    14    5   51 1   
    15    6    7 1   
    16    6    8 1   
    17    6   52 1   
    18    8    9 1   
    19    8   53 1   
    20    8   54 1   
    21    9   12 1   
    22   10   11 1   
    23   10   25 1   
    24   10   55 1   
    25   10   56 1   
    26   11   57 1   
    27   11   58 1   
    28   12   13 2   
    29   12   15 1   
    30   14   17 1   
    31   14   59 1   
    32   14   60 1   
    33   15   18 1   
    34   15   61 1   
    35   15   62 1   
    36   17   20 1   
    37   17   63 1   
    38   17   64 1   
    39   18   21 1   
    40   18   65 1   
    41   18   66 1   
    42   20   23 1   
    43   20   67 1   
    44   20   68 1   
    45   21   24 1   
    46   21   69 1   
    47   21   70 1   
    48   23   26 2   
    49   23   71 1   
    50   24   27 1   
    51   24   72 1   
    52   24   73 1   
    53   26   28 1   
    54   26   74 1   
    55   27   29 1   
    56   27   75 1   
    57   27   76 1   
    58   28   30 1   
    59   28   77 1   
    60   28   78 1   
    61   29   31 1   
    62   29   79 1   
    63   29   80 1   
    64   30   32 1   
    65   30   81 1   
    66   30   82 1   
    67   31   33 1   
    68   31   83 1   
    69   31   84 1   
    70   32   34 1   
    71   32   85 1   
    72   32   86 1   
    73   33   35 1   
    74   33   87 1   
    75   33   88 1   
    76   34   36 1   
    77   34   89 1   
    78   34   90 1   
    79   35   37 1   
    80   35   91 1   
    81   35   92 1   
    82   36   38 1   
    83   36   93 1   
    84   36   94 1   
    85   37   39 2   
    86   37   95 1   
    87   38   40 1   
    88   38   96 1   
    89   38   97 1   
    90   39   41 1   
    91   39   98 1   
    92   40   42 1   
    93   40   99 1   
    94   40  100 1   
    95   41   43 1   
    96   41  101 1   
    97   41  102 1   
    98   42  103 1   
    99   42  104 1   
   100   42  105 1   
   101   43   44 1   
   102   43  106 1   
   103   43  107 1   
   104   44   45 1   
   105   44  108 1   
   106   44  109 1   
   107   45   46 1   
   108   45  110 1   
   109   45  111 1   
   110   46   47 1   
   111   46  112 1   
   112   46  113 1   
   113   47  114 1   
   114   47  115 1   
   115   47  116 1   
@<TRIPOS>SUBSTRUCTURE
     1 ZPE         1 TEMP              0 ****  ****    0 ROOT
