@<TRIPOS>MOLECULE
molecule
   31    32     1     0     0
SMALL
bcc


@<TRIPOS>ATOM
      1 C4           0.0000     0.0000     0.0000 c3         1 ZPF       0.119100
      2 C7           0.1320     0.4760     2.6900 c3         1 ZPF       0.105400
      3 C6           0.1780    -1.0120     2.2700 c3         1 ZPF       0.101800
      4 C9          -0.4370    -1.9420     3.3180 c3         1 ZPF       0.164400
      5 C8           2.0270     0.0000     1.4550 c3         1 ZPF       0.311900
      6 O1           3.9490     0.2110    -1.1730 o          1 ZPF      -0.606100
      7 C2           3.2510     1.2000    -1.2410 c          1 ZPF       0.658100
      8 C1           3.7570     2.4330    -1.9460 c3         1 ZPF      -0.171100
      9 N            2.0230     1.1980    -0.6860 ns         1 ZPF      -0.575900
     10 C3           1.5330     0.0000     0.0000 c3         1 ZPF       0.076700
     11 O6          -0.4770    -0.1980    -1.3330 oh         1 ZPF      -0.585800
     12 C5          -0.5070    -1.1320     0.8990 c3         1 ZPF       0.114100
     13 O5          -0.1830    -2.3940     0.3110 oh         1 ZPF      -0.567800
     14 O4           0.1910    -1.7160     4.5820 oh         1 ZPF      -0.598800
     15 O3           1.5950    -1.2380     2.0610 os         1 ZPF      -0.365600
     16 O2           1.3420     1.0490     2.1640 os         1 ZPF      -0.427600
     17 H2          -0.3610     0.9490     0.3760 h1         1 ZPF       0.045700
     18 H9           0.1120     0.5620     3.7700 h1         1 ZPF       0.062200
     19 H10         -0.7340     0.9630     2.2570 h1         1 ZPF       0.062200
     20 H11         -1.4990    -1.7400     3.4010 h1         1 ZPF       0.037700
     21 H12         -0.2880    -2.9720     3.0180 h1         1 ZPF       0.037700
     22 H4           3.1030     0.1170     1.5120 h2         1 ZPF       0.130700
     23 H5           3.7490     3.2700    -1.2590 hc         1 ZPF       0.061033
     24 H7           4.7680     2.2610    -2.2950 hc         1 ZPF       0.061033
     25 H6           3.1160     2.6540    -2.7910 hc         1 ZPF       0.061033
     26 H8           1.4280     1.9960    -0.7860 hn         1 ZPF       0.313500
     27 H1           1.8960    -0.8850    -0.5080 h1         1 ZPF       0.125700
     28 H15         -1.1850     0.4010    -1.5050 ho         1 ZPF       0.398000
     29 H3          -1.5800    -1.0500     1.0190 h1         1 ZPF       0.036700
     30 H14         -0.9760    -2.8280     0.0420 ho         1 ZPF       0.404000
     31 H13         -0.1060    -2.3640     5.2000 ho         1 ZPF       0.408000
@<TRIPOS>BOND
     1     6     7 2
     2     8     7 1
     3     7     9 1
     4     9    10 1
     5    10     5 1
     6    10     1 1
     7    11     1 1
     8     5    15 1
     9     5    16 1
    10     1    12 1
    11    13    12 1
    12    15     3 1
    13    16     2 1
    14    12     3 1
    15     3     2 1
    16     3     4 1
    17     4    14 1
    18     1    17 1
    19     2    18 1
    20     2    19 1
    21     4    20 1
    22     4    21 1
    23     5    22 1
    24     8    23 1
    25     8    24 1
    26     8    25 1
    27     9    26 1
    28    10    27 1
    29    11    28 1
    30    12    29 1
    31    13    30 1
    32    14    31 1
@<TRIPOS>SUBSTRUCTURE
     1 ZPF         1 TEMP              0 ****  ****    0 ROOT
