@<TRIPOS>MOLECULE
ZPG
   73    72     1     0     0
SMALL
bcc


@<TRIPOS>ATOM
      1 O29        -2.7070   -3.0540   -1.2670 oh        1 ZPG     -0.602800
      2 C27        -2.0630   -1.8440   -0.8940 c3        1 ZPG      0.144100
      3 C28        -2.6420   -1.4220    0.4420 c3        1 ZPG     -0.094100
      4 C24        -0.5480   -2.0520   -0.7790 c3        1 ZPG      0.090400
      5 O23        -0.1060   -2.4160   -2.0840 os        1 ZPG     -0.432600
      6 C22         1.2590   -2.8430   -2.1230 c3        1 ZPG      0.145100
      7 C26         2.2150   -1.7020   -1.8420 c3        1 ZPG     -0.117100
      8 C21         1.4660   -3.4380   -3.5210 c3        1 ZPG      0.133400
      9 O20         1.6750   -2.3650   -4.4310 os        1 ZPG     -0.426600
     10 C20         1.5870   -2.7580   -5.8050 c3        1 ZPG      0.108100
     11 C25         2.7830   -3.5880   -6.2230 c3        1 ZPG     -0.117100
     12 C18         1.4830   -1.4540   -6.6090 c3        1 ZPG      0.131400
     13 O17         2.7390   -0.8470   -6.8550 os        1 ZPG     -0.407600
     14 C15         3.2570   -0.0790   -5.7640 c3        1 ZPG      0.133100
     15 C16         4.7650   -0.0650   -5.9330 c3        1 ZPG     -0.087100
     16 C14         2.6690    1.3360   -5.7720 c3        1 ZPG      0.107400
     17 O13         3.2280    2.0460   -6.8710 os        1 ZPG     -0.420600
     18 C11         2.5940    3.3050   -7.1180 c3        1 ZPG      0.107100
     19 C12         2.9870    4.3370   -6.0810 c3        1 ZPG     -0.115100
     20 C10         3.0180    3.7240   -8.5330 c3        1 ZPG      0.133400
     21 O9          4.3010    4.3240   -8.5730 os        1 ZPG     -0.414600
     22 C7          5.3890    3.3920   -8.6190 c3        1 ZPG      0.133100
     23 C8          5.6410    2.9390  -10.0420 c3        1 ZPG     -0.110100
     24 C6          6.5950    4.1210   -8.0190 c3        1 ZPG      0.132400
     25 O5          7.1420    4.9850   -9.0120 os        1 ZPG     -0.419600
     26 C4          8.1400    5.8490   -8.4730 c3        1 ZPG      0.130400
     27 C2          8.6730    6.6700   -9.6520 c3        1 ZPG      0.138100
     28 C3          7.7590    7.8340   -9.9770 c3        1 ZPG     -0.131100
     29 O1          9.9660    7.1130   -9.2490 oh        1 ZPG     -0.606800
     30 HO29       -2.2760   -3.3540   -2.0780 ho        1 ZPG      0.414000
     31 H27        -2.2680   -1.0620   -1.6790 h1        1 ZPG      0.045700
     32 H281       -2.4250   -2.1900    1.2220 hc        1 ZPG      0.046700
     33 H282       -3.7490   -1.3130    0.3540 hc        1 ZPG      0.046700
     34 H283       -2.1990   -0.4470    0.7520 hc        1 ZPG      0.046700
     35 H241       -0.0470   -1.1030   -0.4580 h1        1 ZPG      0.038700
     36 H242       -0.3160   -2.8710   -0.0490 h1        1 ZPG      0.038700
     37 H22         1.4040   -3.6680   -1.3680 h1        1 ZPG      0.038700
     38 H261        3.2600   -2.0300   -2.0570 hc        1 ZPG      0.047367
     39 H262        1.9720   -0.8320   -2.5000 hc        1 ZPG      0.047367
     40 H263        2.1450   -1.3830   -0.7760 hc        1 ZPG      0.047367
     41 H211        0.5660   -4.0370   -3.8200 h1        1 ZPG      0.039700
     42 H212        2.3760   -4.0950   -3.5090 h1        1 ZPG      0.039700
     43 H20         0.6360   -3.3440   -5.9600 h1        1 ZPG      0.040700
     44 H251        3.7270   -3.0290   -6.0090 hc        1 ZPG      0.046367
     45 H252        2.7320   -3.7910   -7.3190 hc        1 ZPG      0.046367
     46 H253        2.8010   -4.5580   -5.6720 hc        1 ZPG      0.046367
     47 H181        1.0980   -1.6960   -7.6370 h1        1 ZPG      0.057700
     48 H182        0.7860   -0.7480   -6.0880 h1        1 ZPG      0.057700
     49 H15         2.9740   -0.5630   -4.7850 h1        1 ZPG      0.068700
     50 H161        5.1620   -1.1070   -5.8970 hc        1 ZPG      0.045700
     51 H162        5.0350    0.3900   -6.9160 hc        1 ZPG      0.045700
     52 H163        5.2220    0.5380   -5.1140 hc        1 ZPG      0.045700
     53 H141        2.9380    1.8590   -4.8160 h1        1 ZPG      0.030700
     54 H142        1.5520    1.2900   -5.8700 h1        1 ZPG      0.030700
     55 H11         1.4750    3.1630   -7.1150 h1        1 ZPG      0.036700
     56 H121        2.6220    4.0400   -5.0700 hc        1 ZPG      0.044700
     57 H122        4.0990    4.4390   -6.0510 hc        1 ZPG      0.044700
     58 H123        2.5470    5.3260   -6.3530 hc        1 ZPG      0.044700
     59 H101        2.3290    4.5380   -8.8870 h1        1 ZPG      0.057700
     60 H102        2.9630    2.8390   -9.2190 h1        1 ZPG      0.057700
     61 H7          5.1560    2.5070   -7.9580 h1        1 ZPG      0.069700
     62 H81         5.7950    3.8260  -10.7040 hc        1 ZPG      0.045367
     63 H82         6.5570    2.3030  -10.0760 hc        1 ZPG      0.045367
     64 H83         4.7730    2.3510  -10.4230 hc        1 ZPG      0.045367
     65 H61         7.3740    3.3710   -7.7180 h1        1 ZPG      0.035700
     66 H62         6.2730    4.7160   -7.1230 h1        1 ZPG      0.035700
     67 H41         7.6890    6.5170   -7.6930 h1        1 ZPG      0.040200
     68 H42         8.9680    5.2460   -8.0150 h1        1 ZPG      0.040200
     69 H2          8.7790    6.0000  -10.5530 h1        1 ZPG      0.050700
     70 H31         8.1090    8.3600  -10.8970 hc        1 ZPG      0.047367
     71 H32         7.7410    8.5640   -9.1340 hc        1 ZPG      0.047367
     72 H33         6.7230    7.4510  -10.1490 hc        1 ZPG      0.047367
     73 HO1        10.2620    7.7410   -9.9180 ho        1 ZPG      0.403000
@<TRIPOS>BOND
     1    1    2 1   
     2    1   30 1   
     3    2    3 1   
     4    2    4 1   
     5    2   31 1   
     6    3   32 1   
     7    3   33 1   
     8    3   34 1   
     9    4    5 1   
    10    4   35 1   
    11    4   36 1   
    12    5    6 1   
    13    6    7 1   
    14    6    8 1   
    15    6   37 1   
    16    7   38 1   
    17    7   39 1   
    18    7   40 1   
    19    8    9 1   
    20    8   41 1   
    21    8   42 1   
    22    9   10 1   
    23   10   11 1   
    24   10   12 1   
    25   10   43 1   
    26   11   44 1   
    27   11   45 1   
    28   11   46 1   
    29   12   13 1   
    30   12   47 1   
    31   12   48 1   
    32   13   14 1   
    33   14   15 1   
    34   14   16 1   
    35   14   49 1   
    36   15   50 1   
    37   15   51 1   
    38   15   52 1   
    39   16   17 1   
    40   16   53 1   
    41   16   54 1   
    42   17   18 1   
    43   18   19 1   
    44   18   20 1   
    45   18   55 1   
    46   19   56 1   
    47   19   57 1   
    48   19   58 1   
    49   20   21 1   
    50   20   59 1   
    51   20   60 1   
    52   21   22 1   
    53   22   23 1   
    54   22   24 1   
    55   22   61 1   
    56   23   62 1   
    57   23   63 1   
    58   23   64 1   
    59   24   25 1   
    60   24   65 1   
    61   24   66 1   
    62   25   26 1   
    63   26   27 1   
    64   26   67 1   
    65   26   68 1   
    66   27   28 1   
    67   27   29 1   
    68   27   69 1   
    69   28   70 1   
    70   28   71 1   
    71   28   72 1   
    72   29   73 1   
@<TRIPOS>SUBSTRUCTURE
     1 ZPG         1 TEMP              0 ****  ****    0 ROOT
