@<TRIPOS>MOLECULE
molecule
   73    72     1     0     0
SMALL
bcc


@<TRIPOS>ATOM
      1 O29          0.0000     0.0000     0.0000 oh         1 ZPG      -0.597800
      2 C27          1.4290     0.0000     0.0000 c3         1 ZPG       0.145100
      3 C28          1.9390     0.0000     1.4420 c3         1 ZPG      -0.130100
      4 C24          1.9390    -1.2490    -0.7210 c3         1 ZPG       0.130400
      5 O23          1.5610    -1.1920    -2.0980 os         1 ZPG      -0.382600
      6 C22          2.0640    -2.3800    -2.7150 c3         1 ZPG       0.131100
      7 C26          3.4760    -2.1220    -3.2440 c3         1 ZPG      -0.113100
      8 C21          1.1490    -2.7790    -3.8740 c3         1 ZPG       0.125400
      9 O20          1.2020    -1.7750    -4.8890 os         1 ZPG      -0.375600
     10 C20          0.3320    -2.2030    -5.9390 c3         1 ZPG       0.130100
     11 C25          1.1200    -3.0490    -6.9410 c3         1 ZPG      -0.113100
     12 C18         -0.2500    -0.9800    -6.6500 c3         1 ZPG       0.126400
     13 O17          0.8010    -0.2620    -7.3000 os         1 ZPG      -0.379600
     14 C15          0.1970     0.8630    -7.9420 c3         1 ZPG       0.130100
     15 C16          0.1800     2.0520    -6.9790 c3         1 ZPG      -0.110100
     16 C14          1.0020     1.2290    -9.1910 c3         1 ZPG       0.125400
     17 O13          2.3050     1.6690    -8.8050 os         1 ZPG      -0.375600
     18 C11          3.0040     1.9950   -10.0090 c3         1 ZPG       0.129100
     19 C12          2.7690     3.4680   -10.3510 c3         1 ZPG      -0.112100
     20 C10          4.5010     1.7490    -9.8120 c3         1 ZPG       0.126400
     21 O9           5.0060     2.6510    -8.8260 os         1 ZPG      -0.378600
     22 C7           6.4010     2.3730    -8.6890 c3         1 ZPG       0.130100
     23 C8           7.1930     3.2370    -9.6720 c3         1 ZPG      -0.113100
     24 C6           6.8460     2.6880    -7.2590 c3         1 ZPG       0.128400
     25 O5           6.7150     4.0900    -7.0170 os         1 ZPG      -0.388600
     26 C4           7.1420     4.3200    -5.6740 c3         1 ZPG       0.128400
     27 C2           7.0260     5.8100    -5.3490 c3         1 ZPG       0.146100
     28 C3           7.3650     6.0400    -3.8750 c3         1 ZPG      -0.121100
     29 O1           7.9360     6.5490    -6.1670 oh         1 ZPG      -0.599800
     30 HO29        -0.3140     0.8560     0.2410 ho         1 ZPG       0.401000
     31 H27          1.7900     0.8850    -0.5110 h1         1 ZPG       0.043700
     32 H281         2.0260     1.0210     1.7940 hc         1 ZPG       0.043367
     33 H282         2.9100    -0.4800     1.4820 hc         1 ZPG       0.043367
     34 H283         1.2430    -0.5410     2.0710 hc         1 ZPG       0.043367
     35 H241         1.5080    -2.1310    -0.2640 h1         1 ZPG       0.033700
     36 H242         3.0190    -1.2940    -0.6450 h1         1 ZPG       0.033700
     37 H22          2.0920    -3.1800    -1.9850 h1         1 ZPG       0.038700
     38 H261         4.1920    -2.2590    -2.4430 hc         1 ZPG       0.044700
     39 H262         3.5410    -1.1070    -3.6170 hc         1 ZPG       0.044700
     40 H263         3.6930    -2.8170    -4.0460 hc         1 ZPG       0.044700
     41 H211         0.1320    -2.8770    -3.5150 h1         1 ZPG       0.031700
     42 H212         1.4800    -3.7260    -4.2850 h1         1 ZPG       0.031700
     43 H20         -0.4740    -2.7950    -5.5210 h1         1 ZPG       0.039700
     44 H251         1.1120    -4.0850    -6.6240 hc         1 ZPG       0.043033
     45 H252         0.6630    -2.9680    -7.9200 hc         1 ZPG       0.043033
     46 H253         2.1420    -2.6940    -6.9890 hc         1 ZPG       0.043033
     47 H181        -0.7320    -0.3360    -5.9250 h1         1 ZPG       0.032700
     48 H182        -0.9760    -1.3020    -7.3860 h1         1 ZPG       0.032700
     49 H15         -0.8180     0.6140    -8.2270 h1         1 ZPG       0.035700
     50 H161         1.1010     2.0690    -6.4100 hc         1 ZPG       0.046367
     51 H162         0.0870     2.9720    -7.5430 hc         1 ZPG       0.046367
     52 H163        -0.6610     1.9570    -6.3030 hc         1 ZPG       0.046367
     53 H141         1.0890     0.3600    -9.8320 h1         1 ZPG       0.029200
     54 H142         0.4960     2.0240    -9.7270 h1         1 ZPG       0.029200
     55 H11          2.6390     1.3730   -10.8180 h1         1 ZPG       0.037700
     56 H121         3.5510     3.8130   -11.0160 hc         1 ZPG       0.044367
     57 H122         1.8070     3.5770   -10.8370 hc         1 ZPG       0.044367
     58 H123         2.7830     4.0570    -9.4420 hc         1 ZPG       0.044367
     59 H101         5.0190     1.9110   -10.7500 h1         1 ZPG       0.031700
     60 H102         4.6590     0.7290    -9.4840 h1         1 ZPG       0.031700
     61 H7           6.5830     1.3260    -8.9010 h1         1 ZPG       0.040700
     62 H81          8.2140     3.3380    -9.3220 hc         1 ZPG       0.043700
     63 H82          7.1910     2.7680   -10.6480 hc         1 ZPG       0.043700
     64 H83          6.7370     4.2170    -9.7400 hc         1 ZPG       0.043700
     65 H61          7.8810     2.3940    -7.1290 h1         1 ZPG       0.033700
     66 H62          6.2250     2.1410    -6.5590 h1         1 ZPG       0.033700
     67 H41          8.1730     4.0070    -5.5650 h1         1 ZPG       0.033700
     68 H42          6.5180     3.7530    -4.9950 h1         1 ZPG       0.033700
     69 H2           6.0140     6.1440    -5.5430 h1         1 ZPG       0.043700
     70 H31          6.7040     5.4450    -3.2560 hc         1 ZPG       0.042033
     71 H32          8.3920     5.7490    -3.6910 hc         1 ZPG       0.042033
     72 H33          7.2380     7.0880    -3.6340 hc         1 ZPG       0.042033
     73 HO1          7.6120     7.4260    -6.2850 ho         1 ZPG       0.401000
@<TRIPOS>BOND
     1     1     2 1
     2     1    30 1
     3     2     3 1
     4     2     4 1
     5     2    31 1
     6     3    32 1
     7     3    33 1
     8     3    34 1
     9     4     5 1
    10     4    35 1
    11     4    36 1
    12     5     6 1
    13     6     7 1
    14     6     8 1
    15     6    37 1
    16     7    38 1
    17     7    39 1
    18     7    40 1
    19     8     9 1
    20     8    41 1
    21     8    42 1
    22     9    10 1
    23    10    11 1
    24    10    12 1
    25    10    43 1
    26    11    44 1
    27    11    45 1
    28    11    46 1
    29    12    13 1
    30    12    47 1
    31    12    48 1
    32    13    14 1
    33    14    15 1
    34    14    16 1
    35    14    49 1
    36    15    50 1
    37    15    51 1
    38    15    52 1
    39    16    17 1
    40    16    53 1
    41    16    54 1
    42    17    18 1
    43    18    19 1
    44    18    20 1
    45    18    55 1
    46    19    56 1
    47    19    57 1
    48    19    58 1
    49    20    21 1
    50    20    59 1
    51    20    60 1
    52    21    22 1
    53    22    23 1
    54    22    24 1
    55    22    61 1
    56    23    62 1
    57    23    63 1
    58    23    64 1
    59    24    25 1
    60    24    65 1
    61    24    66 1
    62    25    26 1
    63    26    27 1
    64    26    67 1
    65    26    68 1
    66    27    28 1
    67    27    29 1
    68    27    69 1
    69    28    70 1
    70    28    71 1
    71    28    72 1
    72    29    73 1
@<TRIPOS>SUBSTRUCTURE
     1 ZPG         1 TEMP              0 ****  ****    0 ROOT
