@<TRIPOS>MOLECULE
molecule
   75    76     1     0     0
SMALL
bcc


@<TRIPOS>ATOM
      1 C1           0.0000     0.0000     0.0000 c          1 ZPN       0.655300
      2 O1          -0.6000    -0.3040     1.0140 o          1 ZPN      -0.567000
      3 C2           1.4170     0.0000     0.0000 ce         1 ZPN      -0.240200
      4 C3           2.0700     0.0000     1.1840 ce         1 ZPN      -0.026000
      5 C4           3.5310     0.0100     1.2420 ce         1 ZPN      -0.177000
      6 C5           4.1360     0.8170     2.1220 c2         1 ZPN      -0.076400
      7 C21          5.6370     0.8300     2.2140 c3         1 ZPN      -0.060900
      8 C6           3.3130     1.7200     3.0030 c3         1 ZPN      -0.154200
      9 C7           3.8100     3.1370     2.8800 c          1 ZPN       0.571100
     10 O7           4.8040     3.4790     3.4740 o          1 ZPN      -0.524100
     11 C8           3.0720     4.1260     2.0170 c3         1 ZPN      -0.178400
     12 C9           1.8470     4.6480     2.7690 c3         1 ZPN      -0.069400
     13 C10          1.6750     6.1440     2.5040 c3         1 ZPN      -0.069400
     14 C11          0.2670     6.4060     1.9640 c3         1 ZPN       0.134100
     15 C12          0.1590     7.8640     1.5140 c3         1 ZPN      -0.071200
     16 C13         -0.4560     7.9130     0.1380 c2         1 ZPN      -0.108400
     17 C22          0.0060     8.7440    -0.7610 c2         1 ZPN      -0.210000
     18 C14         -1.6060     6.9970    -0.1950 c3         1 ZPN      -0.077200
     19 C15         -1.3210     5.5990     0.3580 c3         1 ZPN       0.139300
     20 O11          0.0210     5.5470     0.8480 os         1 ZPN      -0.390600
     21 C16         -1.4920     4.5690    -0.7290 c2         1 ZPN      -0.437200
     22 C17         -1.8500     3.3420    -0.4280 c2         1 ZPN       0.057600
     23 C23         -2.1090     2.9700     1.0090 c3         1 ZPN      -0.143900
     24 C18         -2.0140     2.3120    -1.5180 c3         1 ZPN      -0.058200
     25 C19         -1.9840     0.9040    -0.9210 c3         1 ZPN       0.129100
     26 O19         -0.6890     0.3280    -1.1060 os         1 ZPN      -0.412900
     27 C20         -3.0320     0.0340    -1.6160 c3         1 ZPN       0.308500
     28 O20         -4.3280     0.6050    -1.4240 oh         1 ZPN      -0.616800
     29 N20         -3.0040    -1.3150    -1.0450 ns         1 ZPN      -0.590900
     30 C1'         -3.1380    -2.3900    -1.8480 c          1 ZPN       0.775300
     31 O1'         -3.2820    -2.2390    -3.0470 o          1 ZPN      -0.653100
     32 C2'         -3.1110    -3.7360    -1.2780 ce         1 ZPN      -0.259200
     33 C3'         -3.3510    -4.8080    -2.0650 cf         1 ZPN      -0.147000
     34 C4'         -3.8050    -4.6170    -3.4430 cf         1 ZPN      -0.106000
     35 C5'         -3.9190    -5.6660    -4.2600 c2         1 ZPN      -0.229200
     36 C6'         -4.3870    -5.4690    -5.6780 c3         1 ZPN      -0.050900
     37 H21          1.9700     0.0070    -0.9320 ha         1 ZPN       0.154000
     38 H31          1.5030    -0.0000     2.1070 ha         1 ZPN       0.152000
     39 H41          4.1140    -0.6350     0.5970 ha         1 ZPN       0.149000
     40 H211         6.0350     1.5670     1.5270 hc         1 ZPN       0.054367
     41 H212         6.0230    -0.1490     1.9560 hc         1 ZPN       0.054367
     42 H213         5.9350     1.0800     3.2250 hc         1 ZPN       0.054367
     43 H62          3.4010     1.3950     4.0330 hc         1 ZPN       0.074200
     44 H61          2.2750     1.6740     2.6980 hc         1 ZPN       0.074200
     45 H81          3.7270     4.9550     1.7770 hc         1 ZPN       0.072200
     46 H82          2.7540     3.6410     1.1020 hc         1 ZPN       0.072200
     47 H91          1.9800     4.4830     3.8310 hc         1 ZPN       0.048700
     48 H92          0.9640     4.1180     2.4300 hc         1 ZPN       0.048700
     49 H102         1.8150     6.6930     3.4270 hc         1 ZPN       0.056700
     50 H162         2.4080     6.4690     1.7750 hc         1 ZPN       0.056700
     51 H141        -0.4650     6.2110     2.7370 h1         1 ZPN       0.028700
     52 H151        -0.4680     8.4100     2.2090 hc         1 ZPN       0.053700
     53 H142         1.1470     8.3070     1.4840 hc         1 ZPN       0.053700
     54 H223        -0.4380     8.7760    -1.7490 ha         1 ZPN       0.115000
     55 H222         0.8330     9.4010    -0.5180 ha         1 ZPN       0.115000
     56 H121        -1.7220     6.9420    -1.2710 hc         1 ZPN       0.062700
     57 H122        -2.5150     7.3830     0.2520 hc         1 ZPN       0.062700
     58 H111        -2.0060     5.3890     1.1700 h1         1 ZPN       0.011700
     59 H101        -2.3140     5.0820    -0.2450 ha         1 ZPN       0.292000
     60 H231        -3.0610     2.4590     1.0850 hc         1 ZPN       0.062700
     61 H232        -2.1310     3.8670     1.6160 hc         1 ZPN       0.062700
     62 H233        -1.3200     2.3150     1.3600 hc         1 ZPN       0.062700
     63 H181        -2.9610     2.4690    -2.0200 hc         1 ZPN       0.094200
     64 H182        -1.2070     2.4160    -2.2330 hc         1 ZPN       0.094200
     65 H191        -2.2050     0.9570     0.1390 h1         1 ZPN       0.088700
     66 H201        -2.8140    -0.0170    -2.6750 h2         1 ZPN       0.086700
     67 H202        -4.8110     0.5690    -2.2330 ho         1 ZPN       0.420000
     68 H203        -2.9320    -1.4370    -0.0540 hn         1 ZPN       0.344500
     69 H2'1        -4.0450    -3.1980    -1.3870 ha         1 ZPN       0.047000
     70 H3'1        -2.6420    -4.6280    -2.8640 ha         1 ZPN       0.177000
     71 H4'1        -4.0500    -3.6240    -3.7990 ha         1 ZPN       0.215000
     72 H6          -3.6740    -6.6590    -3.9030 ha         1 ZPN       0.135000
     73 H7          -3.6800    -4.8420    -6.2080 hc         1 ZPN       0.042033
     74 H8          -5.3600    -4.9930    -5.6740 hc         1 ZPN       0.042033
     75 H9          -4.4580    -6.4300    -6.1720 hc         1 ZPN       0.042033
@<TRIPOS>BOND
     1    10     9 2
     2     7     6 1
     3     9     8 1
     4     9    11 1
     5     8     6 1
     6     6     5 2
     7    11    12 1
     8     5     4 1
     9    12    13 1
    10    13    14 1
    11     4     3 2
    12     3     1 1
    13    14    15 1
    14    14    20 1
    15    15    16 1
    16    20    19 1
    17     2     1 2
    18     1    26 1
    19    16    17 2
    20    16    18 1
    21    26    25 1
    22    19    18 1
    23    19    21 1
    24    21    22 2
    25    22    23 1
    26    22    24 1
    27    25    24 1
    28    25    27 1
    29    28    27 1
    30    27    29 1
    31    29    30 1
    32    32    30 1
    33    32    33 2
    34    30    31 2
    35    33    34 1
    36    34    35 2
    37    35    36 1
    38     3    37 1
    39     4    38 1
    40     5    39 1
    41     7    40 1
    42     7    41 1
    43     7    42 1
    44     8    43 1
    45     8    44 1
    46    11    45 1
    47    11    46 1
    48    12    47 1
    49    12    48 1
    50    13    49 1
    51    13    50 1
    52    14    51 1
    53    15    52 1
    54    15    53 1
    55    17    54 1
    56    17    55 1
    57    18    56 1
    58    18    57 1
    59    19    58 1
    60    21    59 1
    61    23    60 1
    62    23    61 1
    63    23    62 1
    64    24    63 1
    65    24    64 1
    66    25    65 1
    67    27    66 1
    68    28    67 1
    69    29    68 1
    70    32    69 1
    71    33    70 1
    72    34    71 1
    73    35    72 1
    74    36    73 1
    75    36    74 1
    76    36    75 1
@<TRIPOS>SUBSTRUCTURE
     1 ZPN         1 TEMP              0 ****  ****    0 ROOT
