@<TRIPOS>MOLECULE
ZPN
   75    81     1     0     0
SMALL
bcc


@<TRIPOS>ATOM
      1 C1           0.0000     0.0000     0.0000 c3         1 ZPN       0.506000
      2 O1          -0.6000    -0.3040     1.0140 o          1 ZPN      -0.469000
      3 C2           1.4170     0.0000     0.0000 c2         1 ZPN      -0.295000
      4 C3           2.0700     0.0000     1.1840 c3         1 ZPN      -0.116000
      5 C4           3.5310     0.0100     1.2420 c3         1 ZPN      -0.169000
      6 C5           4.1360     0.8170     2.1220 c2         1 ZPN      -0.154000
      7 C21          5.6370     0.8300     2.2140 c3         1 ZPN      -0.054000
      8 C6           3.3130     1.7200     3.0030 c3         1 ZPN      -0.117000
      9 C7           3.8100     3.1370     2.8800 c2         1 ZPN       0.268000
     10 O7           4.8040     3.4790     3.4740 o          1 ZPN      -0.306000
     11 C8           3.0720     4.1260     2.0170 c3         1 ZPN      -0.153000
     12 C9           1.8470     4.6480     2.7690 c3         1 ZPN      -0.099000
     13 C10          1.6750     6.1440     2.5040 c3         1 ZPN      -0.108000
     14 C11          0.2670     6.4060     1.9640 c3         1 ZPN       0.068000
     15 C12          0.1590     7.8640     1.5140 c3         1 ZPN      -0.093000
     16 C13         -0.4560     7.9130     0.1380 c2         1 ZPN      -0.110000
     17 C22          0.0060     8.7440    -0.7610 c2         1 ZPN      -0.171000
     18 C14         -1.6060     6.9970    -0.1950 c3         1 ZPN      -0.091000
     19 C15         -1.3210     5.5990     0.3580 c3         1 ZPN       0.106000
     20 O11          0.0210     5.5470     0.8480 os         1 ZPN      -0.251000
     21 C16         -1.4920     4.5690    -0.7290 c2         1 ZPN      -0.174000
     22 C17         -1.8500     3.3420    -0.4280 c2         1 ZPN      -0.105000
     23 C23         -2.1090     2.9700     1.0090 c3         1 ZPN      -0.095000
     24 C18         -2.0140     2.3120    -1.5180 c3         1 ZPN      -0.071000
     25 C19         -1.9840     0.9040    -0.9210 c3         1 ZPN       0.031000
     26 O19         -0.6890     0.3280    -1.1060 os         1 ZPN      -0.244000
     27 C20         -3.0320     0.0340    -1.6160 c3         1 ZPN       0.076000
     28 O20         -4.3280     0.6050    -1.4240 oh         1 ZPN      -0.323000
     29 N20         -3.0040    -1.3150    -1.0450 ns         1 ZPN      -0.022000
     30 C1'         -3.1380    -2.3900    -1.8480 c2         1 ZPN       0.292000
     31 O1'         -3.2820    -2.2390    -3.0470 o          1 ZPN      -0.443000
     32 C2'         -3.1110    -3.7360    -1.2780 c2         1 ZPN      -0.379000
     33 C3'         -3.3510    -4.8080    -2.0650 c3         1 ZPN       0.044000
     34 C4'         -3.8050    -4.6170    -3.4430 c2         1 ZPN       0.045000
     35 C5'         -3.9190    -5.6660    -4.2600 c2         1 ZPN      -0.217000
     36 C6'         -4.3870    -5.4690    -5.6780 DU         1 ZPN      -0.035000
     37 H21          0.8090    -0.8860     0.1300 DU         1 ZPN       0.072000
     38 H31          2.6940    -0.8610     0.9760 DU         1 ZPN       0.252000
     39 H41          2.9410     0.7370     0.6980 DU         1 ZPN       0.252000
     40 H211         5.9350     1.0170     3.2380 hc         1 ZPN       0.059667
     41 H212         6.0320     1.6100     1.5750 hc         1 ZPN       0.059667
     42 H213         6.0260    -0.1300     1.8950 hc         1 ZPN       0.059667
     43 H62          2.2750     1.6740     2.6980 hc         1 ZPN       0.088500
     44 H61          3.4010     1.3950     4.0330 hc         1 ZPN       0.088500
     45 H81          3.7270     4.9550     1.7770 hc         1 ZPN       0.079500
     46 H82          2.7540     3.6410     1.1020 hc         1 ZPN       0.079500
     47 H91          1.9800     4.4830     3.8310 hc         1 ZPN       0.064500
     48 H92          0.9640     4.1180     2.4300 hc         1 ZPN       0.064500
     49 H102         2.4080     6.4690     1.7750 hc         1 ZPN       0.067500
     50 H162         1.8150     6.6930     3.4270 hc         1 ZPN       0.067500
     51 H141        -0.4650     6.2110     2.7370 h1         1 ZPN       0.046000
     52 H151        -0.4670     8.4100     2.2090 hc         1 ZPN       0.065000
     53 H142         1.1470     8.3070     1.4840 hc         1 ZPN       0.065000
     54 H223        -0.4380     8.7760    -1.7490 ha         1 ZPN       0.087500
     55 H222         0.8330     9.4010    -0.5180 ha         1 ZPN       0.087500
     56 H121        -2.5150     7.3830     0.2520 hc         1 ZPN       0.066000
     57 H122        -1.7220     6.9420    -1.2710 hc         1 ZPN       0.066000
     58 H111        -2.0060     5.3890     1.1700 h1         1 ZPN       0.057000
     59 H101        -1.3060     4.8400    -1.7610 ha         1 ZPN       0.115000
     60 H231        -2.4920     3.8310     1.5420 hc         1 ZPN       0.061000
     61 H232        -2.8350     2.1670     1.0500 hc         1 ZPN       0.061000
     62 H233        -1.1840     2.6430     1.4690 hc         1 ZPN       0.061000
     63 H181        -1.2070     2.4160    -2.2330 hc         1 ZPN       0.082500
     64 H182        -2.9610     2.4690    -2.0200 hc         1 ZPN       0.082500
     65 H191        -2.2050     0.9570     0.1390 h1         1 ZPN       0.114000
     66 H201        -2.8140    -0.0170    -2.6750 h2         1 ZPN       0.091000
     67 H202        -4.8680     0.4200    -2.1750 ho         1 ZPN       0.205000
     68 H203        -2.9410    -1.4370    -0.0540 hn         1 ZPN       0.106000
     69 H2'1        -2.7750    -3.8800    -0.2580 ha         1 ZPN       0.123000
     70 H3'1        -3.3290    -5.8040    -1.6400 hc         1 ZPN       0.124000
     71 H4'1        -2.7720    -4.7670    -3.1550 DU         1 ZPN       0.075000
     72 H6          -4.9520    -5.5160    -4.5480 DU         1 ZPN       0.095000
     73 H7          -5.0780    -6.2600    -5.9430 ha         1 ZPN       0.045667
     74 H8          -4.8850    -4.5110    -5.7640 ha         1 ZPN       0.045667
     75 H9          -3.5350    -5.4940    -6.3460 ha         1 ZPN       0.045667
@<TRIPOS>BOND
     1     1     2 1   
     2     1     3 1   
     3     1    26 1   
     4     1    37 1   
     5     3     4 1   
     6     3    37 1   
     7     4     5 1   
     8     4    38 1   
     9     4    39 1   
    10     5     6 1   
    11     5    38 1   
    12     5    39 1   
    13     6     7 1   
    14     6     8 1   
    15     7    40 1   
    16     7    41 1   
    17     7    42 1   
    18     8     9 1   
    19     8    43 1   
    20     8    44 1   
    21     9    10 1   
    22     9    11 1   
    23    11    12 1   
    24    11    45 1   
    25    11    46 1   
    26    12    13 1   
    27    12    47 1   
    28    12    48 1   
    29    13    14 1   
    30    13    49 1   
    31    13    50 1   
    32    14    15 1   
    33    14    20 1   
    34    14    51 1   
    35    15    16 1   
    36    15    52 1   
    37    15    53 1   
    38    16    17 1   
    39    16    18 1   
    40    17    54 1   
    41    17    55 1   
    42    18    19 1   
    43    18    56 1   
    44    18    57 1   
    45    19    20 1   
    46    19    21 1   
    47    19    58 1   
    48    21    22 1   
    49    21    59 1   
    50    22    23 1   
    51    22    24 1   
    52    23    60 1   
    53    23    61 1   
    54    23    62 1   
    55    24    25 1   
    56    24    63 1   
    57    24    64 1   
    58    25    26 1   
    59    25    27 1   
    60    25    65 1   
    61    27    28 1   
    62    27    29 1   
    63    27    66 1   
    64    28    67 1   
    65    29    30 1   
    66    29    68 1   
    67    30    31 1   
    68    30    32 1   
    69    32    33 1   
    70    32    69 1   
    71    33    34 1   
    72    33    70 1   
    73    33    71 1   
    74    34    35 1   
    75    34    71 1   
    76    35    36 1   
    77    35    72 1   
    78    36    72 1   
    79    36    73 1   
    80    36    74 1   
    81    36    75 1   
@<TRIPOS>SUBSTRUCTURE
     1 ZPN         1 TEMP              0 ****  ****    0 ROOT
