@<TRIPOS>MOLECULE
ZPX
   77    80     1     0     0
SMALL
bcc


@<TRIPOS>ATOM
      1 CAA          0.0000     0.0000     0.0000 c3         1 ZPX      -0.013100
      2 CAB          2.2070     3.2530    -7.0110 c3         1 ZPX       0.273100
      3 CAC          4.8040     5.6010    -7.2470 c3         1 ZPX      -0.001300
      4 OAD          1.8580     0.1990    -2.6690 o          1 ZPX      -0.643100
      5 OAE          4.1930     6.8790    -2.4680 o          1 ZPX      -0.636100
      6 OAF          4.8380     3.0570    -8.0490 o          1 ZPX      -0.575800
      7 OAG          5.7780     3.5700    -5.8180 o          1 ZPX      -0.575800
      8 OAH          3.2670     6.0520     2.2620 oh         1 ZPX      -0.598800
      9 FAI          3.4030     0.0020     5.3020 f          1 ZPX      -0.125900
     10 CAJ          1.9930     9.4250    -3.7200 ca         1 ZPX      -0.100000
     11 CAK          1.3860     8.2770    -3.2480 ca         1 ZPX      -0.092000
     12 CAL          2.8670    10.1280    -2.9110 ca         1 ZPX      -0.092000
     13 CAM          6.5530     4.4110     4.8190 cc         1 ZPX      -0.334300
     14 CAN          6.6800     5.7840     5.0530 cc         1 ZPX       0.400200
     15 CAO          1.6510     7.8310    -1.9660 ca         1 ZPX      -0.090500
     16 CAP          3.1310     9.6820    -1.6290 ca         1 ZPX      -0.090500
     17 CAQ          2.9180    -1.1790     3.3070 ca         1 ZPX      -0.128000
     18 CAR          2.5260     1.1820     3.4450 ca         1 ZPX      -0.128000
     19 CAS          2.4580    -1.1790     2.0040 ca         1 ZPX      -0.069500
     20 CAT          2.0660     1.1800     2.1410 ca         1 ZPX      -0.069500
     21 CAU          6.1370     4.2430     3.5420 cd         1 ZPX      -0.239300
     22 CAV          2.9710     3.5410    -2.0000 ca         1 ZPX      -0.087000
     23 CAW          2.7740     2.4000    -4.1190 ca         1 ZPX      -0.026000
     24 CAX          3.5680     4.6690    -4.0510 ca         1 ZPX      -0.037000
     25 CAY          2.8110     8.0490     0.2400 c3         1 ZPX       0.017900
     26 CAZ          5.5760     5.7500     1.6170 c3         1 ZPX      -0.028700
     27 NBA          6.3520     6.4180     3.9570 nd         1 ZPX      -0.666800
     28 NBB          2.0180     1.1960    -0.6900 ns         1 ZPX      -0.206900
     29 NBC          3.6590     5.8950    -0.5500 ns         1 ZPX      -0.195900
     30 CBD          2.1470     1.1940    -2.0320 c          1 ZPX       0.600700
     31 CBE          3.7880     5.8890    -1.8910 c          1 ZPX       0.595700
     32 CBF          2.9530     0.0010     4.0290 ca         1 ZPX       0.107900
     33 CBG          2.5230     8.5340    -1.1570 ca         1 ZPX      -0.079300
     34 CBH          2.6400     2.4010    -2.7290 ca         1 ZPX      -0.145600
     35 CBI          3.4360     4.6770    -2.6610 ca         1 ZPX      -0.140600
     36 CBJ          2.0320     0.0000     1.4210 ca         1 ZPX      -0.120300
     37 CBK          3.2370     3.5320    -4.7740 ca         1 ZPX       0.075600
     38 CBL          1.5290     0.0000     0.0000 c3         1 ZPX       0.082000
     39 CBM          4.3790     6.7030     1.6440 c3         1 ZPX       0.158100
     40 CBN          4.0080     7.0960     0.2130 c3         1 ZPX       0.011700
     41 NBO          3.3710     3.5270    -6.1650 nh         1 ZPX      -0.391900
     42 NBP          6.0050     5.4670     2.9880 na         1 ZPX       0.482400
     43 SBQ          4.8440     3.8310    -6.8570 s6         1 ZPX       0.961900
     44 HAA         -0.3610     0.0000     1.0210 hc         1 ZPX       0.014700
     45 HAAA        -0.3610     0.8840    -0.5110 hc         1 ZPX       0.014700
     46 HAAB        -0.3610    -0.8850    -0.5110 hc         1 ZPX       0.014700
     47 HAB          2.1920     2.2030    -7.2760 h1         1 ZPX       0.005700
     48 HABA         1.3010     3.5020    -6.4720 h1         1 ZPX       0.005700
     49 HABB         2.2670     3.8520    -7.9120 h1         1 ZPX       0.005700
     50 HAC          5.4620     6.1350    -6.5720 h1         1 ZPX       0.068367
     51 HACA         5.1340     5.7530    -8.2680 h1         1 ZPX       0.068367
     52 HACB         3.7930     5.9730    -7.1350 h1         1 ZPX       0.068367
     53 HAJ          1.7850     9.7740    -4.7240 ha         1 ZPX       0.097000
     54 HAK          0.7020     7.7260    -3.8830 ha         1 ZPX       0.098500
     55 HAL          3.3430    11.0280    -3.2810 ha         1 ZPX       0.098500
     56 HAM          6.7530     3.6210     5.5330 ha         1 ZPX       0.137000
     57 HAN          6.9960     6.2430     5.9820 h4         1 ZPX       0.004100
     58 HAO          1.1760     6.9310    -1.5960 ha         1 ZPX       0.100000
     59 HAP          3.8150    10.2330    -0.9940 ha         1 ZPX       0.100000
     60 HAQ          3.2520    -2.1030     3.7630 ha         1 ZPX       0.122000
     61 HAR          2.5530     2.1060     4.0090 ha         1 ZPX       0.122000
     62 HAS          2.4310    -2.1030     1.4390 ha         1 ZPX       0.111500
     63 HAT          1.7320     2.1030     1.6830 ha         1 ZPX       0.111500
     64 HAU          5.9440     3.2960     3.0520 h4         1 ZPX       0.145000
     65 HAV          2.8680     3.5450    -0.9220 ha         1 ZPX       0.102000
     66 HAW          2.5170     1.5140    -4.6870 ha         1 ZPX       0.137000
     67 HAX          3.9280     5.5510    -4.5660 ha         1 ZPX       0.127000
     68 HAY          3.0380     8.8960     0.8760 hc         1 ZPX       0.027200
     69 HAYA         1.9440     7.5280     0.6270 hc         1 ZPX       0.027200
     70 HAZ          5.2910     4.8260     1.1290 h1         1 ZPX       0.041700
     71 HAZA         6.3910     6.2100     1.0720 h1         1 ZPX       0.041700
     72 HNBB         2.2970     1.9990    -0.1620 hn         1 ZPX       0.183500
     73 HNBC         3.3690     5.0660    -0.0710 hn         1 ZPX       0.186500
     74 HBL          1.8900    -0.8850    -0.5110 h1         1 ZPX       0.061700
     75 HBM          4.6370     7.5910     2.2080 h1         1 ZPX       0.042700
     76 HBN          4.8520     7.5890    -0.2550 h1         1 ZPX       0.067700
     77 HOAH         3.0530     6.4920     3.0680 ho         1 ZPX       0.409000
@<TRIPOS>BOND
     1     1    38 1   
     2     1    44 1   
     3     1    45 1   
     4     1    46 1   
     5     2    41 1   
     6     2    47 1   
     7     2    48 1   
     8     2    49 1   
     9     3    43 1   
    10     3    50 1   
    11     3    51 1   
    12     3    52 1   
    13     4    30 2   
    14     5    31 2   
    15     6    43 2   
    16     7    43 2   
    17     8    39 1   
    18     8    77 1   
    19     9    32 1   
    20    10    11 ar  
    21    10    12 ar  
    22    10    53 1   
    23    11    15 ar  
    24    11    54 1   
    25    12    16 ar  
    26    12    55 1   
    27    13    14 1   
    28    13    21 2   
    29    13    56 1   
    30    14    27 2   
    31    14    57 1   
    32    15    33 ar  
    33    15    58 1   
    34    16    33 ar  
    35    16    59 1   
    36    17    19 ar  
    37    17    32 ar  
    38    17    60 1   
    39    18    20 ar  
    40    18    32 ar  
    41    18    61 1   
    42    19    36 ar  
    43    19    62 1   
    44    20    36 ar  
    45    20    63 1   
    46    21    42 1   
    47    21    64 1   
    48    22    34 ar  
    49    22    35 ar  
    50    22    65 1   
    51    23    34 ar  
    52    23    37 ar  
    53    23    66 1   
    54    24    35 ar  
    55    24    37 ar  
    56    24    67 1   
    57    25    33 1   
    58    25    40 1   
    59    25    68 1   
    60    25    69 1   
    61    26    39 1   
    62    26    42 1   
    63    26    70 1   
    64    26    71 1   
    65    27    42 1   
    66    28    30 1   
    67    28    38 1   
    68    28    72 1   
    69    29    31 1   
    70    29    40 1   
    71    29    73 1   
    72    30    34 1   
    73    31    35 1   
    74    36    38 1   
    75    37    41 1   
    76    38    74 1   
    77    39    40 1   
    78    39    75 1   
    79    40    76 1   
    80    41    43 1   
@<TRIPOS>SUBSTRUCTURE
     1 ZPX         1 TEMP              0 ****  ****    0 ROOT
