@<TRIPOS>MOLECULE
molecule
   35    37     1     0     0
SMALL
bcc


@<TRIPOS>ATOM
      1 C10          0.0000     0.0000     0.0000 cc         1 ZQC       0.568300
      2 N12         -0.8020     0.0010    -1.1330 ns         1 ZQC      -0.515400
      3 C13         -0.2390     0.0000    -2.3580 c          1 ZQC       0.677700
      4 C15         -0.5080     0.0010    -4.8330 ca         1 ZQC      -0.062500
      5 C17         -2.6890     0.0120    -5.8190 ca         1 ZQC       0.067900
      6 C21         -2.5000     0.0270    -8.6120 c3         1 ZQC      -0.022000
      7 C01         -1.5410     0.0250     5.3420 ca         1 ZQC      -0.100000
      8 C02         -0.5090     0.0180     6.2700 ca         1 ZQC      -0.256300
      9 C03          0.8010     0.0080     5.8280 ca         1 ZQC       0.420200
     10 N04          1.0800     0.0060     4.5390 nb         1 ZQC      -0.692000
     11 C05          0.1230     0.0130     3.6200 ca         1 ZQC       0.400300
     12 C06         -1.2200     0.0220     3.9960 ca         1 ZQC      -0.218300
     13 C07          0.4830     0.0110     2.1830 cd         1 ZQC       0.328300
     14 C08          1.7610     0.0000     1.7620 cc         1 ZQC      -0.185400
     15 S09          1.7610     0.0000     0.0000 ss         1 ZQC      -0.120300
     16 N11         -0.4310     0.0060     1.2230 nd         1 ZQC      -0.737000
     17 C14         -1.0900     0.0010    -3.5610 ca         1 ZQC      -0.165600
     18 C16         -1.3010     0.0050    -5.9490 ca         1 ZQC      -0.143500
     19 C18         -3.2730     0.0020    -4.5550 ca         1 ZQC      -0.143500
     20 C19         -2.4830     0.0020    -3.4340 ca         1 ZQC      -0.062500
     21 O22          0.9730    -0.0010    -2.4700 o          1 ZQC      -0.587100
     22 H1          -1.7990     0.0200    -1.0410 hn         1 ZQC       0.344500
     23 H2           0.5710    -0.0050    -4.9340 ha         1 ZQC       0.145000
     24 H3          -3.0220     0.0360    -9.5610 h1         1 ZQC       0.069033
     25 H4          -1.8790    -0.8580    -8.5500 h1         1 ZQC       0.069033
     26 H5          -1.8780     0.9110    -8.5330 h1         1 ZQC       0.069033
     27 H6          -2.5750     0.0330     5.6640 ha         1 ZQC       0.137000
     28 H7          -0.7280     0.0200     7.3310 ha         1 ZQC       0.136000
     29 H8           1.6080     0.0030     6.5500 h4         1 ZQC       0.023100
     30 H9          -2.0000     0.0280     3.2450 ha         1 ZQC       0.157000
     31 H10          2.6390    -0.0000     2.3970 h4         1 ZQC       0.199000
     32 H11         -0.8500     0.0090    -6.9340 ha         1 ZQC       0.144000
     33 H12         -4.3520     0.0050    -4.4570 ha         1 ZQC       0.144000
     34 H13         -2.9380    -0.0060    -2.4510 ha         1 ZQC       0.145000
     35 S20         -3.7070     0.0120    -7.2580 ss         1 ZQC      -0.235000
@<TRIPOS>BOND
     1    35     5 1
     2    35     6 1
     3     9    10 ar
     4     9     8 ar
     5    18     4 ar
     6    18     5 ar
     7    10    11 ar
     8     4    17 ar
     9     5    19 ar
    10     8     7 ar
    11    16     1 2
    12    16    13 1
    13    11    13 1
    14    11    12 ar
    15     2     1 1
    16     2     3 1
    17    17     3 1
    18    17    20 ar
    19    19    20 ar
    20     7    12 ar
    21     1    15 1
    22    13    14 2
    23     3    21 2
    24    14    15 1
    25     2    22 1
    26     4    23 1
    27     6    24 1
    28     6    25 1
    29     6    26 1
    30     7    27 1
    31     8    28 1
    32     9    29 1
    33    12    30 1
    34    14    31 1
    35    18    32 1
    36    19    33 1
    37    20    34 1
@<TRIPOS>SUBSTRUCTURE
     1 ZQC         1 TEMP              0 ****  ****    0 ROOT
