@<TRIPOS>MOLECULE
ZQC
   35    37     1     0     0
SMALL
bcc


@<TRIPOS>ATOM
      1 C10          0.0000     0.0000     0.0000 cc         1 ZQC       0.418300
      2 N12         -0.8020     0.0010    -1.1330 ns         1 ZQC      -0.058400
      3 C13         -0.2390     0.0000    -2.3580 c          1 ZQC       0.572700
      4 C15         -0.5080     0.0010    -4.8330 ca         1 ZQC      -0.039000
      5 C17         -2.6890     0.0120    -5.8190 ca         1 ZQC       0.084900
      6 C21         -2.5000     0.0270    -8.6120 c3         1 ZQC       0.108000
      7 C01         -1.5410     0.0250     5.3420 ca         1 ZQC      -0.074000
      8 C02         -0.5090     0.0180     6.2700 ca         1 ZQC      -0.222300
      9 C03          0.8010     0.0080     5.8280 ca         1 ZQC       0.401200
     10 N04          1.0800     0.0060     4.5390 nb         1 ZQC      -0.575000
     11 C05          0.1230     0.0130     3.6200 ca         1 ZQC       0.344300
     12 C06         -1.2200     0.0220     3.9960 ca         1 ZQC      -0.190300
     13 C07          0.4830     0.0110     2.1830 cd         1 ZQC       0.280300
     14 C08          1.7610     0.0000     1.7620 cc         1 ZQC      -0.104400
     15 S09          1.7610     0.0000     0.0000 ss         1 ZQC      -0.246300
     16 N11         -0.4310     0.0060     1.2230 nd         1 ZQC      -0.613000
     17 C14         -1.0900     0.0010    -3.5610 ca         1 ZQC      -0.172600
     18 C16         -1.3010     0.0050    -5.9490 ca         1 ZQC      -0.113000
     19 C18         -3.2730     0.0020    -4.5550 ca         1 ZQC      -0.113000
     20 C19         -2.4830     0.0020    -3.4340 ca         1 ZQC      -0.039000
     21 O22          0.9730    -0.0010    -2.4700 o          1 ZQC      -0.608100
     22 H1          -1.7990     0.0200    -1.0410 hn         1 ZQC       0.182500
     23 H2           0.5710    -0.0050    -4.9340 ha         1 ZQC       0.116500
     24 H3          -3.0220     0.0360    -9.5610 h1         1 ZQC       0.038700
     25 H4          -1.8790    -0.8580    -8.5500 h1         1 ZQC       0.038700
     26 H5          -1.8780     0.9110    -8.5330 h1         1 ZQC       0.038700
     27 H6          -2.5750     0.0330     5.6640 ha         1 ZQC       0.108000
     28 H7          -0.7280     0.0200     7.3310 ha         1 ZQC       0.112000
     29 H8           1.6080     0.0030     6.5500 h4         1 ZQC      -0.020900
     30 H9          -2.0000     0.0280     3.2450 ha         1 ZQC       0.130000
     31 H10          2.6390    -0.0000     2.3970 h4         1 ZQC       0.175000
     32 H11         -0.8500     0.0090    -6.9340 ha         1 ZQC       0.121500
     33 H12         -4.3520     0.0050    -4.4570 ha         1 ZQC       0.121500
     34 H13         -2.9380    -0.0060    -2.4510 ha         1 ZQC       0.116500
     35 S20         -3.7070     0.0120    -7.2580 ss         1 ZQC      -0.321000
@<TRIPOS>BOND
     1     1     2 1   
     2     1    15 1   
     3     1    16 2   
     4     2     3 1   
     5     2    22 1   
     6     3    17 1   
     7     3    21 2   
     8     4    17 ar  
     9     4    18 ar  
    10     4    23 1   
    11     5    18 ar  
    12     5    19 ar  
    13     5    35 1   
    14     6    24 1   
    15     6    25 1   
    16     6    26 1   
    17     6    35 1   
    18     7     8 ar  
    19     7    12 ar  
    20     7    27 1   
    21     8     9 ar  
    22     8    28 1   
    23     9    10 ar  
    24     9    29 1   
    25    10    11 ar  
    26    11    12 ar  
    27    11    13 1   
    28    12    30 1   
    29    13    14 2   
    30    13    16 1   
    31    14    15 1   
    32    14    31 1   
    33    17    20 ar  
    34    18    32 1   
    35    19    20 ar  
    36    19    33 1   
    37    20    34 1   
@<TRIPOS>SUBSTRUCTURE
     1 ZQC         1 TEMP              0 ****  ****    0 ROOT
