@<TRIPOS>MOLECULE
ZQU
   70    76     1     0     0
SMALL
bcc


@<TRIPOS>ATOM
      1 C01          0.0000     0.0000     0.0000 cx         1 ZQU      -0.030400
      2 C02          1.4870     0.0000     0.0000 cx         1 ZQU      -0.030400
      3 C03          0.8090     0.0000     1.3310 cx         1 ZQU       0.286600
      4 C04         -0.9480    -1.1540    -0.0690 ca         1 ZQU      -0.046800
      5 C05          2.3180    -1.0810    -0.5860 ca         1 ZQU      -0.046800
      6 C06          0.7860    -3.0140     0.0350 c3         1 ZQU       0.232100
      7 C07         -0.5740    -2.4720    -0.1210 ca         1 ZQU      -0.057300
      8 C08          1.9930    -2.4110    -0.5430 ca         1 ZQU      -0.057300
      9 C09         -2.3020    -0.8150    -0.0980 ca         1 ZQU      -0.094000
     10 C10          3.5000    -0.6720    -1.2040 ca         1 ZQU      -0.094000
     11 C11          1.7260    -5.2370     0.2370 c3         1 ZQU       0.069800
     12 C12          0.9400    -4.4470    -1.9110 c3         1 ZQU       0.069800
     13 C13         -1.5750    -3.4330    -0.3260 ca         1 ZQU      -0.168000
     14 C14          2.8890    -3.3270    -1.1180 ca         1 ZQU      -0.168000
     15 C15          1.5910    -6.6830    -0.2450 c3         1 ZQU       0.152800
     16 C16          0.8040    -5.8940    -2.3940 c3         1 ZQU       0.152800
     17 C17         -3.2780    -1.7710    -0.2540 ca         1 ZQU      -0.100500
     18 C18          4.3670    -1.5780    -1.7690 ca         1 ZQU      -0.100500
     19 C19         -2.9030    -3.0950    -0.3960 ca         1 ZQU      -0.090000
     20 C20          4.0550    -2.9240    -1.7190 ca         1 ZQU      -0.090000
     21 C22          2.4210    -8.1940    -3.5620 c3         1 ZQU       0.179100
     22 C23          2.3210    -9.6230    -4.0990 c3         1 ZQU       0.160400
     23 C24          2.8340   -10.8750    -6.0530 ca         1 ZQU       0.173100
     24 C25          3.3370   -11.0000    -7.3640 ca         1 ZQU      -0.174300
     25 C26          2.3370   -11.9770    -5.4140 ca         1 ZQU      -0.232000
     26 C27          3.3200   -12.2650    -8.0010 ca         1 ZQU       0.406600
     27 C28          2.3240   -13.2190    -6.0430 ca         1 ZQU      -0.048000
     28 C29          3.8550    -9.8930    -8.0580 ca         1 ZQU      -0.031000
     29 C30          2.8020   -13.3740    -7.3090 ca         1 ZQU      -0.183300
     30 C31          4.3240   -10.0900    -9.3270 ca         1 ZQU      -0.240300
     31 C32          4.2800   -11.3600    -9.8950 ca         1 ZQU       0.425200
     32 F01          0.8370    -1.1840     2.0750 f          1 ZQU      -0.183800
     33 F02          0.8360     1.1840     2.0740 f          1 ZQU      -0.183800
     34 N01          0.7390    -4.3980    -0.4560 n3         1 ZQU      -0.534600
     35 N02          1.7920    -6.7330    -1.7010 n3         1 ZQU      -0.530600
     36 N03          3.7950   -12.3900    -9.2450 nb         1 ZQU      -0.579000
     37 O01          3.7960    -7.8260    -3.4370 oh         1 ZQU      -0.566800
     38 O02          2.8470    -9.6710    -5.4270 os         1 ZQU      -0.293900
     39 H1          -0.4450     0.9620    -0.2260 hc         1 ZQU       0.068700
     40 H2           1.8720     0.9830    -0.2410 hc         1 ZQU       0.068700
     41 H3           0.9630    -3.0650     1.1030 h1         1 ZQU       0.066700
     42 H4          -2.5900     0.2230     0.0130 ha         1 ZQU       0.104500
     43 H5           3.7400     0.3840    -1.2410 ha         1 ZQU       0.104500
     44 H6           1.5470    -5.1960     1.3050 h1         1 ZQU       0.055950
     45 H7           2.7230    -4.8760     0.0180 h1         1 ZQU       0.055950
     46 H8           0.1920    -3.8330    -2.3990 h1         1 ZQU       0.055950
     47 H9           1.9300    -4.0780    -2.1510 h1         1 ZQU       0.055950
     48 H10         -1.2900    -4.4730    -0.4380 ha         1 ZQU       0.176500
     49 H11          2.6540    -4.3840    -1.0830 ha         1 ZQU       0.176500
     50 H12          0.6010    -7.0520    -0.0050 h1         1 ZQU       0.015700
     51 H13          2.3390    -7.2970     0.2420 h1         1 ZQU       0.015700
     52 H14         -0.1930    -6.2550    -2.1740 h1         1 ZQU       0.015700
     53 H15          0.9830    -5.9350    -3.4620 h1         1 ZQU       0.015700
     54 H16         -4.3220    -1.4870    -0.3070 ha         1 ZQU       0.105500
     55 H17          5.2840    -1.2430    -2.2400 ha         1 ZQU       0.105500
     56 H18         -3.6550    -3.8650    -0.5200 ha         1 ZQU       0.107500
     57 H19          4.7240    -3.6550    -2.1580 ha         1 ZQU       0.107500
     58 H20          0.7130    -8.4340    -2.2800 h1         1 ZQU       0.014700
     59 H21          2.2640    -8.7640    -1.4960 h1         1 ZQU       0.014700
     60 H22          1.9260    -7.5150    -4.2470 h1         1 ZQU       0.049700
     61 H23          2.8890   -10.2890    -3.4620 h1         1 ZQU       0.009700
     62 H24          1.2830    -9.9330    -4.1110 h1         1 ZQU       0.009700
     63 H25          1.9510   -11.8840    -4.4070 ha         1 ZQU       0.119000
     64 H26          1.9260   -14.0780    -5.5170 ha         1 ZQU       0.101000
     65 H27          3.8820    -8.9120    -7.6000 ha         1 ZQU       0.122000
     66 H28          2.7820   -14.3480    -7.7810 ha         1 ZQU       0.121000
     67 H29          4.7310    -9.2580    -9.8890 ha         1 ZQU       0.114000
     68 H30          4.6550   -11.5000   -10.9010 h4         1 ZQU      -0.023900
     69 H33          4.3020    -8.5810    -3.1880 ho         1 ZQU       0.389000
     70 C21          1.7450    -8.1160    -2.1920 c3         1 ZQU       0.125800
@<TRIPOS>BOND
     1     1     2 1   
     2     1     3 1   
     3     1     4 1   
     4     1    39 1   
     5     2     3 1   
     6     2     5 1   
     7     2    40 1   
     8     3    32 1   
     9     3    33 1   
    10     4     7 ar  
    11     4     9 ar  
    12     5     8 ar  
    13     5    10 ar  
    14     6     7 1   
    15     6     8 1   
    16     6    34 1   
    17     6    41 1   
    18     7    13 ar  
    19     8    14 ar  
    20     9    17 ar  
    21     9    42 1   
    22    10    18 ar  
    23    10    43 1   
    24    11    15 1   
    25    11    34 1   
    26    11    44 1   
    27    11    45 1   
    28    12    16 1   
    29    12    34 1   
    30    12    46 1   
    31    12    47 1   
    32    13    19 ar  
    33    13    48 1   
    34    14    20 ar  
    35    14    49 1   
    36    15    35 1   
    37    15    50 1   
    38    15    51 1   
    39    16    35 1   
    40    16    52 1   
    41    16    53 1   
    42    17    19 ar  
    43    17    54 1   
    44    18    20 ar  
    45    18    55 1   
    46    19    56 1   
    47    20    57 1   
    48    21    22 1   
    49    21    37 1   
    50    21    60 1   
    51    21    70 1   
    52    22    38 1   
    53    22    61 1   
    54    22    62 1   
    55    23    24 ar  
    56    23    25 ar  
    57    23    38 1   
    58    24    26 ar  
    59    24    28 ar  
    60    25    27 ar  
    61    25    63 1   
    62    26    29 ar  
    63    26    36 ar  
    64    27    29 ar  
    65    27    64 1   
    66    28    30 ar  
    67    28    65 1   
    68    29    66 1   
    69    30    31 ar  
    70    30    67 1   
    71    31    36 ar  
    72    31    68 1   
    73    35    70 1   
    74    37    69 1   
    75    58    70 1   
    76    59    70 1   
@<TRIPOS>SUBSTRUCTURE
     1 ZQU         1 TEMP              0 ****  ****    0 ROOT
