@<TRIPOS>MOLECULE
molecule
   70    76     1     0     0
SMALL
bcc


@<TRIPOS>ATOM
      1 C01          0.0000     0.0000     0.0000 cx         1 ZQU      -0.065400
      2 C02          1.4870     0.0000     0.0000 cx         1 ZQU      -0.065400
      3 C03          0.8090     0.0000     1.3310 cx         1 ZQU       0.312600
      4 C04         -0.9480    -1.1540    -0.0690 ca         1 ZQU      -0.044300
      5 C05          2.3180    -1.0810    -0.5860 ca         1 ZQU      -0.044300
      6 C06          0.7860    -3.0140     0.0350 c3         1 ZQU       0.256100
      7 C07         -0.5740    -2.4720    -0.1210 ca         1 ZQU      -0.063300
      8 C08          1.9930    -2.4110    -0.5430 ca         1 ZQU      -0.063300
      9 C09         -2.3020    -0.8150    -0.0980 ca         1 ZQU      -0.123500
     10 C10          3.5000    -0.6720    -1.2040 ca         1 ZQU      -0.123500
     11 C11          1.7260    -5.2370     0.2370 c3         1 ZQU       0.114800
     12 C12          0.9400    -4.4470    -1.9110 c3         1 ZQU       0.114800
     13 C13         -1.5750    -3.4330    -0.3260 ca         1 ZQU      -0.149000
     14 C14          2.8890    -3.3270    -1.1180 ca         1 ZQU      -0.149000
     15 C15          1.5910    -6.6830    -0.2450 c3         1 ZQU       0.161800
     16 C16          0.8040    -5.8940    -2.3940 c3         1 ZQU       0.161800
     17 C17         -3.2780    -1.7710    -0.2540 ca         1 ZQU      -0.124000
     18 C18          4.3670    -1.5780    -1.7690 ca         1 ZQU      -0.124000
     19 C19         -2.9030    -3.0950    -0.3960 ca         1 ZQU      -0.129000
     20 C20          4.0550    -2.9240    -1.7190 ca         1 ZQU      -0.129000
     21 C22          2.4210    -8.1940    -3.5620 c3         1 ZQU       0.152100
     22 C23          2.3210    -9.6230    -4.0990 c3         1 ZQU       0.098400
     23 C24          2.8340   -10.8750    -6.0530 ca         1 ZQU       0.162100
     24 C25          3.3370   -11.0000    -7.3640 ca         1 ZQU      -0.174300
     25 C26          2.3370   -11.9770    -5.4140 ca         1 ZQU      -0.241000
     26 C27          3.3200   -12.2650    -8.0010 ca         1 ZQU       0.449600
     27 C28          2.3240   -13.2190    -6.0430 ca         1 ZQU      -0.080000
     28 C29          3.8550    -9.8930    -8.0580 ca         1 ZQU      -0.053000
     29 C30          2.8020   -13.3740    -7.3090 ca         1 ZQU      -0.202300
     30 C31          4.3240   -10.0900    -9.3270 ca         1 ZQU      -0.273300
     31 C32          4.2800   -11.3600    -9.8950 ca         1 ZQU       0.443200
     32 F01          0.8370    -1.1840     2.0750 f          1 ZQU      -0.194300
     33 F02          0.8360     1.1840     2.0740 f          1 ZQU      -0.194300
     34 N01          0.7390    -4.3980    -0.4560 n3         1 ZQU      -0.730600
     35 N02          1.7920    -6.7330    -1.7010 n3         1 ZQU      -0.721600
     36 N03          3.7950   -12.3900    -9.2450 nb         1 ZQU      -0.687000
     37 O01          3.7960    -7.8260    -3.4370 oh         1 ZQU      -0.576800
     38 O02          2.8470    -9.6710    -5.4270 os         1 ZQU      -0.319900
     39 H1          -0.4450     0.9620    -0.2260 hc         1 ZQU       0.096200
     40 H2           1.8720     0.9830    -0.2410 hc         1 ZQU       0.096200
     41 H3           0.9630    -3.0650     1.1030 h1         1 ZQU       0.091700
     42 H4          -2.5900     0.2230     0.0130 ha         1 ZQU       0.129000
     43 H5           3.7400     0.3840    -1.2410 ha         1 ZQU       0.129000
     44 H6           1.5470    -5.1960     1.3050 h1         1 ZQU       0.070950
     45 H7           2.7230    -4.8760     0.0180 h1         1 ZQU       0.070950
     46 H8           0.1920    -3.8330    -2.3990 h1         1 ZQU       0.070950
     47 H9           1.9300    -4.0780    -2.1510 h1         1 ZQU       0.070950
     48 H10         -1.2900    -4.4730    -0.4380 ha         1 ZQU       0.183500
     49 H11          2.6540    -4.3840    -1.0830 ha         1 ZQU       0.183500
     50 H12          0.6010    -7.0520    -0.0050 h1         1 ZQU       0.041200
     51 H13          2.3390    -7.2970     0.2420 h1         1 ZQU       0.041200
     52 H14         -0.1930    -6.2550    -2.1740 h1         1 ZQU       0.041200
     53 H15          0.9830    -5.9350    -3.4620 h1         1 ZQU       0.041200
     54 H16         -4.3220    -1.4870    -0.3070 ha         1 ZQU       0.132500
     55 H17          5.2840    -1.2430    -2.2400 ha         1 ZQU       0.132500
     56 H18         -3.6550    -3.8650    -0.5200 ha         1 ZQU       0.135500
     57 H19          4.7240    -3.6550    -2.1580 ha         1 ZQU       0.135500
     58 H20          0.7130    -8.4340    -2.2800 h1         1 ZQU       0.038700
     59 H21          2.2640    -8.7640    -1.4960 h1         1 ZQU       0.038700
     60 H22          1.9260    -7.5150    -4.2470 h1         1 ZQU       0.089700
     61 H23          2.8890   -10.2890    -3.4620 h1         1 ZQU       0.043200
     62 H24          1.2830    -9.9330    -4.1110 h1         1 ZQU       0.043200
     63 H25          1.9510   -11.8840    -4.4070 ha         1 ZQU       0.132000
     64 H26          1.9260   -14.0780    -5.5170 ha         1 ZQU       0.133000
     65 H27          3.8820    -8.9120    -7.6000 ha         1 ZQU       0.155000
     66 H28          2.7820   -14.3480    -7.7810 ha         1 ZQU       0.151000
     67 H29          4.7310    -9.2580    -9.8890 ha         1 ZQU       0.139000
     68 H30          4.6550   -11.5000   -10.9010 h4         1 ZQU       0.023100
     69 H33          4.3020    -8.5810    -3.1880 ho         1 ZQU       0.399000
     70 C21          1.7450    -8.1160    -2.1920 c3         1 ZQU       0.137800
@<TRIPOS>BOND
     1    18    20 ar
     2    18    10 ar
     3    20    14 ar
     4    10     5 ar
     5    14     8 ar
     6     5     8 ar
     7     5     2 1
     8     8     6 1
     9    32     3 1
    10     2     3 1
    11     2     1 1
    12     6     7 1
    13     6    34 1
    14    12    34 1
    15    12    16 1
    16     3    33 1
    17     3     1 1
    18     7    13 ar
    19     7     4 ar
    20    34    11 1
    21    13    19 ar
    22     1     4 1
    23    16    35 1
    24     4     9 ar
    25    19    17 ar
    26    11    15 1
    27     9    17 ar
    28    35    15 1
    29    35    70 1
    30    21    37 1
    31    21    70 1
    32    21    22 1
    33    22    38 1
    34    38    23 1
    35    25    23 ar
    36    25    27 ar
    37    23    24 ar
    38    27    29 ar
    39    24    28 ar
    40    24    26 ar
    41    28    30 ar
    42    29    26 ar
    43    26    36 ar
    44    30    31 ar
    45    36    31 ar
    46     1    39 1
    47     2    40 1
    48     6    41 1
    49     9    42 1
    50    10    43 1
    51    11    44 1
    52    11    45 1
    53    12    46 1
    54    12    47 1
    55    13    48 1
    56    14    49 1
    57    15    50 1
    58    15    51 1
    59    16    52 1
    60    16    53 1
    61    17    54 1
    62    18    55 1
    63    19    56 1
    64    20    57 1
    65    70    58 1
    66    70    59 1
    67    21    60 1
    68    22    61 1
    69    22    62 1
    70    25    63 1
    71    27    64 1
    72    28    65 1
    73    29    66 1
    74    30    67 1
    75    31    68 1
    76    37    69 1
@<TRIPOS>SUBSTRUCTURE
     1 ZQU         1 TEMP              0 ****  ****    0 ROOT
