@<TRIPOS>MOLECULE
ZRK
   24    26     1     0     0
SMALL
bcc


@<TRIPOS>ATOM
      1 C1          0.1060    0.0010   -0.0520 cc        1 ZRK      0.032600
      2 C2          1.4820    0.0030    0.0150 cd        1 ZRK     -0.337800
      3 C3          2.0310    0.0010    1.3220 cd        1 ZRK      0.402500
      4 C4          1.2360   -0.0020    2.4840 cc        1 ZRK     -0.316900
      5 C5         -0.2080   -0.0030    2.3850 c         1 ZRK      0.732100
      6 O8         -1.0270   -0.0050    3.3210 o         1 ZRK     -0.625500
      7 O10         3.3730    0.0020    1.6480 os        1 ZRK     -0.341800
      8 C11         3.4220   -0.0010    3.0700 cd        1 ZRK      0.274200
      9 C12         4.7340   -0.0000    3.6630 ca        1 ZRK     -0.082500
     10 C17         4.8760   -0.0030    5.0610 ca        1 ZRK     -0.230800
     11 C16         6.1720   -0.0020    5.6030 ca        1 ZRK      0.395200
     12 C9          2.1420   -0.0030    3.6010 cc        1 ZRK     -0.153300
     13 N15         7.2950    0.0000    4.8590 nb        1 ZRK     -0.660000
     14 C14         7.1440    0.0020    3.5200 ca        1 ZRK      0.395200
     15 N3         -0.7070   -0.0010    1.0560 n         1 ZRK     -0.450100
     16 C13         5.8960    0.0020    2.8750 ca        1 ZRK     -0.230800
     17 H1         -0.4140    0.0030   -1.0290 h4        1 ZRK      0.158000
     18 H2          2.1150    0.0050   -0.8780 ha        1 ZRK      0.170000
     19 H3         -1.6970   -0.0020    0.9370 hn        1 ZRK      0.336500
     20 H9          1.8550   -0.0050    4.6510 ha        1 ZRK      0.180000
     21 H13         5.8290    0.0040    1.7780 ha        1 ZRK      0.151500
     22 H17         3.9960   -0.0040    5.7180 ha        1 ZRK      0.151500
     23 H14         8.0800    0.0040    2.9320 h4        1 ZRK      0.025100
     24 H16         6.3220   -0.0040    6.6980 h4        1 ZRK      0.025100
@<TRIPOS>BOND
     1    1    2 2
     2    1   15 1
     3    1   17 1
     4    2    3 1
     5    2   18 1
     6    3    4 2
     7    3    7 1
     8    4    5 1
     9    4   12 1
    10    5    6 2
    11    5   15 1
    12    7    8 1
    13    8    9 1
    14    8   12 2
    15    9   10 ar
    16    9   16 ar
    17   10   11 ar
    18   10   22 1
    19   11   13 ar
    20   11   24 1
    21   12   20 1
    22   13   14 ar
    23   14   16 ar
    24   14   23 1
    25   15   19 1
    26   16   21 1
@<TRIPOS>SUBSTRUCTURE
     1 ZRK         1 TEMP              0 ****  ****    0 ROOT
