@<TRIPOS>MOLECULE
ZRL
   24    26     1     0     0
SMALL
bcc


@<TRIPOS>ATOM
      1 C3          0.0850    0.0810   -0.0300 cc        1 ZRL      0.059600
      2 C2          1.4560    0.1960    0.0380 cd        1 ZRL     -0.125500
      3 C11         2.0790    0.1170    1.3170 cd        1 ZRL     -0.007900
      4 C7          1.2910   -0.0750    2.4670 cc        1 ZRL     -0.207600
      5 C5         -0.1570   -0.1950    2.3850 c         1 ZRL      0.728100
      6 O6         -0.9390   -0.3640    3.3370 o         1 ZRL     -0.620500
      7 C9          3.4240    0.0190    3.3670 cd        1 ZRL     -0.098100
      8 C12         4.5050    0.0150    4.3210 ca        1 ZRL      0.038000
      9 C13         5.8270   -0.2250    3.9070 ca        1 ZRL     -0.243800
     10 C14         6.8490   -0.2160    4.8690 ca        1 ZRL      0.400200
     11 C8          2.0780   -0.1300    3.6520 cc        1 ZRL     -0.059000
     12 N15         6.6390    0.0080    6.1810 nb        1 ZRL     -0.664000
     13 C16         5.3690    0.2370    6.5670 ca        1 ZRL      0.400200
     14 N4         -0.6980   -0.1060    1.0810 n         1 ZRL     -0.444100
     15 C17         4.2750    0.2530    5.6850 ca        1 ZRL     -0.243800
     16 S10         3.6910    0.2190    1.7060 ss        1 ZRL      0.107200
     17 BR1         2.4950    0.4490   -1.4790 br        1 ZRL     -0.039700
     18 H13         6.0610   -0.4210    2.8520 ha        1 ZRL      0.145500
     19 H14         7.8990   -0.4020    4.5770 h4        1 ZRL      0.024600
     20 H17         3.2630    0.4520    6.0600 ha        1 ZRL      0.145500
     21 H16         5.2220    0.4190    7.6470 h4        1 ZRL      0.024600
     22 H8          1.6420   -0.2810    4.6440 ha        1 ZRL      0.176000
     23 H3         -0.4550    0.1340   -0.9960 h4        1 ZRL      0.166000
     24 H4         -1.6870   -0.1840    0.9780 hn        1 ZRL      0.339500
@<TRIPOS>BOND
     1    1    2 2
     2    1   14 1
     3    1   23 1
     4    2    3 1
     5    2   17 1
     6    3    4 2
     7    3   16 1
     8    4    5 1
     9    4   11 1
    10    5    6 2
    11    5   14 1
    12    7    8 1
    13    7   11 2
    14    7   16 1
    15    8    9 ar
    16    8   15 ar
    17    9   10 ar
    18    9   18 1
    19   10   12 ar
    20   10   19 1
    21   11   22 1
    22   12   13 ar
    23   13   15 ar
    24   13   21 1
    25   14   24 1
    26   15   20 1
@<TRIPOS>SUBSTRUCTURE
     1 ZRL         1 TEMP              0 ****  ****    0 ROOT
