@<TRIPOS>MOLECULE
molecule
   35    38     1     0     0
SMALL
bcc


@<TRIPOS>ATOM
      1 C4           0.0000     0.0000     0.0000 ca         1 ZRM      -0.102000
      2 C6           0.0080     0.0000     2.4120 ca         1 ZRM      -0.102000
      3 C3           1.3800     0.0000     0.0000 ca         1 ZRM      -0.152500
      4 C7           1.3870    -0.0000     2.4050 ca         1 ZRM      -0.152500
      5 C19         -3.4020     5.4080     3.7380 ca         1 ZRM      -0.249800
      6 C23         -5.7260     4.8530     3.4850 ca         1 ZRM      -0.249800
      7 C14         -4.8740     2.2840     2.2840 cc         1 ZRM      -0.073000
      8 C20         -3.7980     6.6060     4.2980 ca         1 ZRM       0.426700
      9 C22         -6.0320     6.0710     4.0540 ca         1 ZRM       0.426700
     10 C18         -4.3820     4.5000     3.3170 ca         1 ZRM       0.035000
     11 C5          -0.6940    -0.0000     1.2090 ca         1 ZRM      -0.059800
     12 C13         -4.3070     1.1240     1.7420 cc         1 ZRM      -0.190600
     13 C2           2.0760     0.0000     1.2000 ca         1 ZRM       0.111100
     14 C15         -4.0050     3.2060     2.7120 cd         1 ZRM      -0.016100
     15 C17         -2.9130     1.1520     1.7520 cd         1 ZRM       0.060100
     16 C9          -2.8610    -1.0620     0.7180 cc         1 ZRM       0.013600
     17 C8          -2.1770     0.0010     1.2130 cd         1 ZRM      -0.084400
     18 C11         -4.9610    -0.0730     1.1860 c          1 ZRM       0.717100
     19 N21         -5.0770     6.8980     4.4370 nb         1 ZRM      -0.694000
     20 N10         -4.2230    -1.0880     0.7090 ns         1 ZRM      -0.423100
     21 O12         -6.1780    -0.1430     1.1570 o          1 ZRM      -0.636500
     22 O1           3.4350    -0.0020     1.1960 oh         1 ZRM      -0.521100
     23 S16         -2.3560     2.6630     2.4550 ss         1 ZRM      -0.079800
     24 H4          -0.5430    -0.0000    -0.9380 ha         1 ZRM       0.140000
     25 H3           1.9200     0.0000    -0.9390 ha         1 ZRM       0.144500
     26 H6          -0.5290     0.0000     3.3530 ha         1 ZRM       0.140000
     27 H7           1.9330    -0.0000     3.3410 ha         1 ZRM       0.144500
     28 H20         -3.0490     7.3150     4.6270 h4         1 ZRM       0.025100
     29 H23         -6.5150     4.1790     3.1730 ha         1 ZRM       0.142000
     30 H22         -7.0690     6.3530     4.1880 h4         1 ZRM       0.025100
     31 H14         -5.9460     2.4260     2.3520 ha         1 ZRM       0.168000
     32 H1           3.7500     0.8870     1.1950 ho         1 ZRM       0.422000
     33 H9          -2.3120    -1.9070     0.3210 h4         1 ZRM       0.164000
     34 H10         -4.6890    -1.8900     0.3350 hn         1 ZRM       0.341500
     35 H19         -2.3500     5.1740     3.6270 ha         1 ZRM       0.142000
@<TRIPOS>BOND
     1     1     3 ar
     2     1    11 ar
     3     2     4 ar
     4     2    11 ar
     5     3    13 ar
     6     4    13 ar
     7     5     8 ar
     8     5    10 ar
     9     6     9 ar
    10     6    10 ar
    11     7    12 1
    12     7    14 2
    13     8    19 ar
    14     9    19 ar
    15    10    14 1
    16    11    17 1
    17    12    15 2
    18    12    18 1
    19    13    22 1
    20    14    23 1
    21    15    17 1
    22    15    23 1
    23    16    17 2
    24    16    20 1
    25    18    20 1
    26    18    21 2
    27     1    24 1
    28     3    25 1
    29     2    26 1
    30     4    27 1
    31     5    35 1
    32     8    28 1
    33     6    29 1
    34     9    30 1
    35     7    31 1
    36    22    32 1
    37    16    33 1
    38    20    34 1
@<TRIPOS>SUBSTRUCTURE
     1 ZRM         1 TEMP              0 ****  ****    0 ROOT
