@<TRIPOS>MOLECULE
molecule
   33    34     1     0     0
SMALL
bcc


@<TRIPOS>ATOM
      1 OAA          0.0000     0.0000     0.0000 o          1 ZRO      -0.806300
      2 CAP          1.2140     0.0000     0.0000 c          1 ZRO       0.879800
      3 OAD          1.8880     0.0000     1.1670 o          1 ZRO      -0.806300
      4 CAS          1.9550    -0.0050    -1.2830 cc         1 ZRO       0.044400
      5 NAN          3.3290     0.1190    -1.2940 ns         1 ZRO      -0.428100
      6 CAU          4.0170     0.1160    -2.4470 c          1 ZRO       0.799500
      7 OAB          5.2270     0.2280    -2.4140 o          1 ZRO      -0.702500
      8 NAO          3.4050    -0.0080    -3.6380 ns         1 ZRO      -0.566500
      9 CAV          2.0640    -0.1350    -3.7060 c          1 ZRO       0.701700
     10 OAC          1.5060    -0.2480    -4.7820 o          1 ZRO      -0.660500
     11 CAT          1.2880    -0.1400    -2.4600 cd         1 ZRO      -0.283400
     12 CAM         -0.2120    -0.2790    -2.4840 c3         1 ZRO      -0.003200
     13 CAL         -0.8500     1.1050    -2.6150 c3         1 ZRO      -0.030100
     14 CAQ         -2.3510     0.9660    -2.6410 ca         1 ZRO      -0.017300
     15 CAH         -3.0680     1.0020    -1.4590 ca         1 ZRO      -0.125000
     16 CAJ         -4.4440     0.8730    -1.4820 ca         1 ZRO      -0.097500
     17 CAR         -5.1030     0.7090    -2.6850 ca         1 ZRO      -0.203300
     18 CAW         -6.6030     0.5640    -2.7100 c3         1 ZRO       0.671200
     19 FAF         -7.1580     1.2700    -1.6370 f          1 ZRO      -0.233300
     20 FAG         -7.1020     1.0740    -3.9130 f          1 ZRO      -0.233300
     21 FAE         -6.9420    -0.7900    -2.6010 f          1 ZRO      -0.233300
     22 CAK         -4.3860     0.6730    -3.8670 ca         1 ZRO      -0.097500
     23 CAI         -3.0110     0.8080    -3.8450 ca         1 ZRO      -0.125000
     24 H2           3.9480    -0.0060    -4.4790 hn         1 ZRO       0.342500
     25 H4          -0.5040    -0.8930    -3.3270 hc         1 ZRO       0.076700
     26 H5          -0.5460    -0.7450    -1.5650 hc         1 ZRO       0.076700
     27 H6          -0.5150     1.5720    -3.5340 hc         1 ZRO       0.054700
     28 H7          -0.5590     1.7190    -1.7720 hc         1 ZRO       0.054700
     29 H8          -2.5560     1.1760    -0.5210 ha         1 ZRO       0.154500
     30 H9          -5.0050     0.8910    -0.5560 ha         1 ZRO       0.133500
     31 H10         -4.9020     0.5320    -4.8090 ha         1 ZRO       0.133500
     32 H11         -2.6250     0.8620    -4.8560 ha         1 ZRO       0.154500
     33 H12          3.8210     0.2130    -0.4280 hn         1 ZRO       0.378500
@<TRIPOS>BOND
     1    19    18 1
     2    20    18 1
     3    18    21 1
     4    18    17 1
     5    17    22 ar
     6    17    16 ar
     7    22    23 ar
     8    16    15 ar
     9    23    14 ar
    10    15    14 ar
    11    14    13 1
    12    13    12 1
    13    12    11 1
    14    10     9 2
    15    11     9 1
    16    11     4 2
    17     9     8 1
    18     4     2 1
    19     4     5 1
    20     1     2 1
    21     2     3 1
    22     8     6 1
    23     5     6 1
    24     6     7 2
    25     8    24 1
    26    12    25 1
    27    12    26 1
    28    13    27 1
    29    13    28 1
    30    15    29 1
    31    16    30 1
    32    22    31 1
    33    23    32 1
    34     5    33 1
@<TRIPOS>SUBSTRUCTURE
     1 ZRO         1 TEMP              0 ****  ****    0 ROOT
