@<TRIPOS>MOLECULE
ZS0
   28    30     1     0     0
SMALL
bcc


@<TRIPOS>ATOM
      1 C1           0.0000     0.0000     0.0000 cc         1 ZS0      -0.535200
      2 C2           1.3890     0.0000     0.0000 cd         1 ZS0       0.279200
      3 N3           1.7850     0.0000     1.2760 nd         1 ZS0      -0.607000
      4 C4           0.7400     0.0010     2.0640 cc         1 ZS0       0.256400
      5 N5          -0.3860     0.0010     1.3250 na         1 ZS0       0.353100
      6 N6           0.0200    -0.0110    -2.3820 ns         1 ZS0       0.001500
      7 C7           1.3640    -0.0000    -2.3670 cs         1 ZS0       0.231400
      8 N8           2.0580    -0.0010    -1.2130 n          1 ZS0       0.174700
      9 C9          -0.6880    -0.0050    -1.2330 c          1 ZS0       0.642100
     10 O10         -1.9050    -0.0040    -1.2600 o          1 ZS0      -0.660500
     11 S11          2.2160    -0.0080    -3.8530 s          1 ZS0      -0.669400
     12 C12          3.5230    -0.0010    -1.2410 c3         1 ZS0       0.040300
     13 C13          4.0250    -1.4210    -1.2500 ca         1 ZS0      -0.148300
     14 C14          4.2320    -2.0730    -2.4510 ca         1 ZS0      -0.061500
     15 C15          4.6930    -3.3770    -2.4610 ca         1 ZS0      -0.141000
     16 C16          4.9470    -4.0290    -1.2660 ca         1 ZS0       0.114900
     17 C17          4.7390    -3.3750    -0.0640 ca         1 ZS0      -0.141000
     18 C18          4.2830    -2.0710    -0.0570 ca         1 ZS0      -0.061500
     19 F19          5.3970    -5.3030    -1.2740 f          1 ZS0      -0.128900
     20 H5          -1.3250     0.0010     1.6710 hn         1 ZS0       0.137700
     21 H4           0.7760     0.0010     3.1470 h5         1 ZS0       0.034100
     22 H6          -0.4630    -0.0110    -3.2590 hn         1 ZS0       0.221500
     23 H121         3.9010     0.5100    -0.3630 h1         1 ZS0       0.072700
     24 H122         3.8680     0.5100    -2.1320 h1         1 ZS0       0.072700
     25 H14          4.0330    -1.5620    -3.3860 ha         1 ZS0       0.140000
     26 H18          4.1200    -1.5600     0.8840 ha         1 ZS0       0.140000
     27 H15          4.8550    -3.8870    -3.4020 ha         1 ZS0       0.121000
     28 H17          4.9390    -3.8850     0.8710 ha         1 ZS0       0.121000
@<TRIPOS>BOND
     1     1     2 2   
     2     1     5 1   
     3     1     9 1   
     4     2     3 1   
     5     2     8 1   
     6     3     4 2   
     7     4     5 1   
     8     4    21 1   
     9     5    20 1   
    10     6     7 1   
    11     6     9 1   
    12     6    22 1   
    13     7     8 1   
    14     7    11 2   
    15     8    12 1   
    16     9    10 2   
    17    12    13 1   
    18    12    23 1   
    19    12    24 1   
    20    13    14 ar  
    21    13    18 ar  
    22    14    15 ar  
    23    14    25 1   
    24    15    16 ar  
    25    15    27 1   
    26    16    17 ar  
    27    16    19 1   
    28    17    18 ar  
    29    17    28 1   
    30    18    26 1   
@<TRIPOS>SUBSTRUCTURE
     1 ZS0         1 TEMP              0 ****  ****    0 ROOT
