@<TRIPOS>MOLECULE
ZS2
   65    70     1     0     0
SMALL
bcc


@<TRIPOS>ATOM
      1 O2           0.0000     0.0000     0.0000 o          1 ZS2      -0.634100
      2 C22          1.2180     0.0000     0.0000 c          1 ZS2       0.612300
      3 N4           1.8920     0.0000     1.1670 ns         1 ZS2      -0.024100
      4 C23          1.2000    -0.1550     2.3750 ca         1 ZS2      -0.131400
      5 C29          1.6570     0.4790     3.5140 ca         1 ZS2      -0.052000
      6 C28          0.9600     0.3190     4.7170 ca         1 ZS2      -0.250900
      7 C27          1.1510     0.8250     6.0730 cc         1 ZS2       0.433800
      8 N6           0.1890     0.3510     6.8130 nd         1 ZS2      -0.634100
      9 N5          -0.6570    -0.4550     6.0440 na         1 ZS2       0.415900
     10 C26         -0.1960    -0.4840     4.7530 ca         1 ZS2      -0.190200
     11 C25         -0.6340    -1.1120     3.5880 ca         1 ZS2      -0.095000
     12 C24          0.0510    -0.9450     2.4210 ca         1 ZS2      -0.061000
     13 C2           1.9260    -0.0070    -1.2270 ce         1 ZS2      -0.322400
     14 C3           2.1010    -1.2840    -2.0230 c3         1 ZS2       0.168200
     15 N            2.8530    -1.1850    -3.2850 ns         1 ZS2      -0.189900
     16 C4           3.3340     0.0190    -3.6540 c          1 ZS2       0.595500
     17 O            3.9570     0.1100    -4.6940 o          1 ZS2      -0.720500
     18 N1           3.1490     1.1160    -2.9110 ns         1 ZS2      -0.003100
     19 C1           2.4620     1.1250    -1.7290 c2         1 ZS2      -0.071600
     20 C            2.3050     2.4190    -0.9720 c3         1 ZS2       0.045100
     21 C5           2.8000    -2.2870    -1.1430 ca         1 ZS2      -0.162300
     22 C10          2.0590    -3.1560    -0.3700 ca         1 ZS2      -0.047000
     23 C9           2.7070    -4.0870     0.4460 ca         1 ZS2      -0.184600
     24 C8           4.1040    -4.1310     0.4710 ca         1 ZS2       0.187900
     25 F            4.7410    -5.0270     1.2550 f          1 ZS2      -0.104900
     26 C7           4.8330    -3.2530    -0.3120 ca         1 ZS2      -0.147000
     27 C6           4.1830    -2.3390    -1.1190 ca         1 ZS2      -0.047000
     28 C11          1.9200    -5.0190     1.2770 c          1 ZS2       0.592700
     29 O1           2.4840    -5.7610     2.0580 o          1 ZS2      -0.630100
     30 N2           0.5770    -5.0470     1.1720 ns         1 ZS2      -0.190900
     31 C12         -0.2110    -5.8970     2.0690 c3         1 ZS2       0.003700
     32 C13         -1.6620    -5.8400     1.6680 ca         1 ZS2       0.359600
     33 C21         -2.1900    -6.8080     0.7970 ca         1 ZS2      -0.141300
     34 C16         -3.5610    -6.7250     0.4410 ca         1 ZS2      -0.020000
     35 C15         -4.3260    -5.6730     0.9780 ca         1 ZS2      -0.190300
     36 C14         -3.7200    -4.7860     1.8150 ca         1 ZS2       0.389200
     37 N3          -2.4380    -4.8900     2.1360 nb         1 ZS2      -0.564000
     38 C20         -1.4050    -7.8470     0.2730 ca         1 ZS2      -0.087000
     39 C19         -1.9700    -8.7560    -0.5680 ca         1 ZS2      -0.092000
     40 C18         -3.3170    -8.6740    -0.9170 ca         1 ZS2      -0.083000
     41 C17         -4.1090    -7.6790    -0.4280 ca         1 ZS2      -0.090000
     42 H1           2.8820     0.1450     1.1730 hn         1 ZS2       0.169500
     43 H2           2.6160     0.9810     3.5070 ha         1 ZS2       0.103000
     44 H3           1.9490     1.4770     6.4040 h4         1 ZS2       0.012800
     45 H5          -1.5250    -1.7280     3.6090 ha         1 ZS2       0.113000
     46 H6          -0.3030    -1.4280     1.5180 ha         1 ZS2       0.134000
     47 H7           1.1140    -1.6660    -2.2560 h1         1 ZS2       0.037700
     48 H8           3.0020    -1.9930    -3.8570 hn         1 ZS2       0.213500
     49 H9           3.5350     1.9790    -3.2390 hn         1 ZS2       0.187500
     50 H10          2.9250     2.3950    -0.0830 hc         1 ZS2       0.024367
     51 H11          2.6100     3.2450    -1.6020 hc         1 ZS2       0.024367
     52 H12          1.2680     2.5460    -0.6850 hc         1 ZS2       0.024367
     53 H13          0.9760    -3.1160    -0.3940 ha         1 ZS2       0.120000
     54 H14          5.9160    -3.2870    -0.2960 ha         1 ZS2       0.126000
     55 H15          4.7580    -1.6540    -1.7300 ha         1 ZS2       0.114000
     56 H16          0.1200    -4.5150     0.4580 hn         1 ZS2       0.181500
     57 H17          0.1430    -6.9180     2.0020 h1         1 ZS2       0.040700
     58 H18         -0.1040    -5.5430     3.0870 h1         1 ZS2       0.040700
     59 H19         -5.3750    -5.5690     0.7290 ha         1 ZS2       0.118000
     60 H20         -4.3040    -3.9770     2.2360 h4         1 ZS2      -0.018900
     61 H21         -0.3570    -7.9240     0.5350 ha         1 ZS2       0.122000
     62 H22         -1.3630    -9.5580    -0.9710 ha         1 ZS2       0.106000
     63 H23         -3.7400    -9.4120    -1.5880 ha         1 ZS2       0.105000
     64 H24         -5.1540    -7.6260    -0.7080 ha         1 ZS2       0.111000
     65 H4          -1.4690    -0.9330     6.3830 hn         1 ZS2       0.153700
@<TRIPOS>BOND
     1     1     2 2   
     2     2     3 1   
     3     2    13 1   
     4     3     4 1   
     5     3    42 1   
     6     4     5 ar  
     7     4    12 ar  
     8     5     6 ar  
     9     5    43 1   
    10     6     7 1   
    11     6    10 ar  
    12     7     8 2   
    13     7    44 1   
    14     8     9 1   
    15     9    10 1   
    16     9    65 1   
    17    10    11 ar  
    18    11    12 ar  
    19    11    45 1   
    20    12    46 1   
    21    13    14 1   
    22    13    19 2   
    23    14    15 1   
    24    14    21 1   
    25    14    47 1   
    26    15    16 1   
    27    15    48 1   
    28    16    17 2   
    29    16    18 1   
    30    18    19 1   
    31    18    49 1   
    32    19    20 1   
    33    20    50 1   
    34    20    51 1   
    35    20    52 1   
    36    21    22 ar  
    37    21    27 ar  
    38    22    23 ar  
    39    22    53 1   
    40    23    24 ar  
    41    23    28 1   
    42    24    25 1   
    43    24    26 ar  
    44    26    27 ar  
    45    26    54 1   
    46    27    55 1   
    47    28    29 2   
    48    28    30 1   
    49    30    31 1   
    50    30    56 1   
    51    31    32 1   
    52    31    57 1   
    53    31    58 1   
    54    32    33 ar  
    55    32    37 ar  
    56    33    34 ar  
    57    33    38 ar  
    58    34    35 ar  
    59    34    41 ar  
    60    35    36 ar  
    61    35    59 1   
    62    36    37 ar  
    63    36    60 1   
    64    38    39 ar  
    65    38    61 1   
    66    39    40 ar  
    67    39    62 1   
    68    40    41 ar  
    69    40    63 1   
    70    41    64 1   
@<TRIPOS>SUBSTRUCTURE
     1 ZS2         1 TEMP              0 ****  ****    0 ROOT
