@<TRIPOS>MOLECULE
molecule
   65    70     1     0     0
SMALL
bcc


@<TRIPOS>ATOM
      1 O2           0.0000     0.0000     0.0000 o          1 ZS2      -0.589100
      2 C22          1.2180     0.0000     0.0000 c          1 ZS2       0.699300
      3 N4           1.8920     0.0000     1.1670 ns         1 ZS2      -0.467100
      4 C23          1.2000    -0.1550     2.3750 ca         1 ZS2       0.014600
      5 C29          1.6570     0.4790     3.5140 ca         1 ZS2      -0.096000
      6 C28          0.9600     0.3190     4.7170 ca         1 ZS2      -0.238900
      7 C27          1.1510     0.8250     6.0730 cc         1 ZS2       0.374800
      8 N6           0.1890     0.3510     6.8130 nd         1 ZS2      -0.498100
      9 N5          -0.6570    -0.4550     6.0440 na         1 ZS2      -0.052100
     10 C26         -0.1960    -0.4840     4.7530 ca         1 ZS2      -0.029200
     11 C25         -0.6340    -1.1120     3.5880 ca         1 ZS2      -0.135000
     12 C24          0.0510    -0.9450     2.4210 ca         1 ZS2      -0.080000
     13 C2           1.9260    -0.0070    -1.2270 ce         1 ZS2      -0.307400
     14 C3           2.1010    -1.2840    -2.0230 c3         1 ZS2       0.230200
     15 N            2.8530    -1.1850    -3.2850 ns         1 ZS2      -0.579900
     16 C4           3.3340     0.0190    -3.6540 c          1 ZS2       0.816500
     17 O            3.9570     0.1100    -4.6940 o          1 ZS2      -0.672500
     18 N1           3.1490     1.1160    -2.9110 ns         1 ZS2      -0.462100
     19 C1           2.4620     1.1250    -1.7290 c2         1 ZS2       0.089400
     20 C            2.3050     2.4190    -0.9720 c3         1 ZS2      -0.070900
     21 C5           2.8000    -2.2870    -1.1430 ca         1 ZS2      -0.149300
     22 C10          2.0590    -3.1560    -0.3700 ca         1 ZS2      -0.068000
     23 C9           2.7070    -4.0870     0.4460 ca         1 ZS2      -0.186600
     24 C8           4.1040    -4.1310     0.4710 ca         1 ZS2       0.201900
     25 F            4.7410    -5.0270     1.2550 f          1 ZS2      -0.104900
     26 C7           4.8330    -3.2530    -0.3120 ca         1 ZS2      -0.184000
     27 C6           4.1830    -2.3390    -1.1190 ca         1 ZS2      -0.068000
     28 C11          1.9200    -5.0190     1.2770 c          1 ZS2       0.674700
     29 O1           2.4840    -5.7610     2.0580 o          1 ZS2      -0.591100
     30 N2           0.5770    -5.0470     1.1720 ns         1 ZS2      -0.578900
     31 C12         -0.2110    -5.8970     2.0690 c3         1 ZS2       0.070700
     32 C13         -1.6620    -5.8400     1.6680 ca         1 ZS2       0.417600
     33 C21         -2.1900    -6.8080     0.7970 ca         1 ZS2      -0.153300
     34 C16         -3.5610    -6.7250     0.4410 ca         1 ZS2      -0.015000
     35 C15         -4.3260    -5.6730     0.9780 ca         1 ZS2      -0.227300
     36 C14         -3.7200    -4.7860     1.8150 ca         1 ZS2       0.408200
     37 N3          -2.4380    -4.8900     2.1360 nb         1 ZS2      -0.686000
     38 C20         -1.4050    -7.8470     0.2730 ca         1 ZS2      -0.107000
     39 C19         -1.9700    -8.7560    -0.5680 ca         1 ZS2      -0.125000
     40 C18         -3.3170    -8.6740    -0.9170 ca         1 ZS2      -0.109000
     41 C17         -4.1090    -7.6790    -0.4280 ca         1 ZS2      -0.122000
     42 H1           2.8820     0.1450     1.1730 hn         1 ZS2       0.325500
     43 H2           2.6160     0.9810     3.5070 ha         1 ZS2       0.129000
     44 H3           1.9490     1.4770     6.4040 h4         1 ZS2       0.060800
     45 H5          -1.5250    -1.7280     3.6090 ha         1 ZS2       0.143000
     46 H6          -0.3030    -1.4280     1.5180 ha         1 ZS2       0.159000
     47 H7           1.1140    -1.6660    -2.2560 h1         1 ZS2       0.069700
     48 H8           3.0020    -1.9930    -3.8570 hn         1 ZS2       0.364500
     49 H9           3.5350     1.9790    -3.2390 hn         1 ZS2       0.352500
     50 H10          2.9250     2.3950    -0.0830 hc         1 ZS2       0.064367
     51 H11          2.6100     3.2450    -1.6020 hc         1 ZS2       0.064367
     52 H12          1.2680     2.5460    -0.6850 hc         1 ZS2       0.064367
     53 H13          0.9760    -3.1160    -0.3940 ha         1 ZS2       0.142000
     54 H14          5.9160    -3.2870    -0.2960 ha         1 ZS2       0.154000
     55 H15          4.7580    -1.6540    -1.7300 ha         1 ZS2       0.146000
     56 H16          0.1200    -4.5150     0.4580 hn         1 ZS2       0.320500
     57 H17          0.1430    -6.9180     2.0020 h1         1 ZS2       0.072200
     58 H18         -0.1040    -5.5430     3.0870 h1         1 ZS2       0.072200
     59 H19         -5.3750    -5.5690     0.7290 ha         1 ZS2       0.143000
     60 H20         -4.3040    -3.9770     2.2360 h4         1 ZS2       0.023100
     61 H21         -0.3570    -7.9240     0.5350 ha         1 ZS2       0.146000
     62 H22         -1.3630    -9.5580    -0.9710 ha         1 ZS2       0.135000
     63 H23         -3.7400    -9.4120    -1.5880 ha         1 ZS2       0.134000
     64 H24         -5.1540    -7.6260    -0.7080 ha         1 ZS2       0.138000
     65 H4          -1.4690    -0.9330     6.3830 hn         1 ZS2       0.333700
@<TRIPOS>BOND
     1    26    27 ar
     2    26    24 ar
     3    25    24 1
     4    27    21 ar
     5    24    23 ar
     6     7     8 2
     7     7     6 1
     8     1     2 2
     9    29    28 2
    10    21    14 1
    11    21    22 ar
    12    23    22 ar
    13    23    28 1
    14     8     9 1
    15    14    15 1
    16    14    13 1
    17     5     6 ar
    18     5     4 ar
    19     6    10 ar
    20    28    30 1
    21     2    13 1
    22     2     3 1
    23    15    16 1
    24     9    10 1
    25     4     3 1
    26     4    12 ar
    27    13    19 2
    28    10    11 ar
    29    30    31 1
    30    12    11 ar
    31    31    32 1
    32    16    17 2
    33    16    18 1
    34    37    32 ar
    35    37    36 ar
    36    32    33 ar
    37    19    18 1
    38    19    20 1
    39    36    35 ar
    40    33    38 ar
    41    33    34 ar
    42    38    39 ar
    43    35    34 ar
    44    34    41 ar
    45    39    40 ar
    46    41    40 ar
    47     3    42 1
    48     5    43 1
    49     7    44 1
    50    11    45 1
    51    12    46 1
    52    14    47 1
    53    15    48 1
    54    18    49 1
    55    20    50 1
    56    20    51 1
    57    20    52 1
    58    22    53 1
    59    26    54 1
    60    27    55 1
    61    30    56 1
    62    31    57 1
    63    31    58 1
    64    35    59 1
    65    36    60 1
    66    38    61 1
    67    39    62 1
    68    40    63 1
    69    41    64 1
    70     9    65 1
@<TRIPOS>SUBSTRUCTURE
     1 ZS2         1 TEMP              0 ****  ****    0 ROOT
