@<TRIPOS>MOLECULE
molecule
   51    55     1     0     0
SMALL
bcc


@<TRIPOS>ATOM
      1 CAQ          0.0000     0.0000     0.0000 c3         1 ZS4       0.135050
      2 CAR          1.5310     0.0000     0.0000 c3         1 ZS4       0.135400
      3 OAW          2.0030     0.0000     1.3500 os         1 ZS4      -0.421100
      4 CBB          1.5500     1.1190     2.1180 c3         1 ZS4       0.135400
      5 CBA          0.0190     1.1290     2.1400 c3         1 ZS4       0.135050
      6 NAV         -0.4850     1.1620     0.7600 nh         1 ZS4      -0.677300
      7 CAU         -1.8630     1.2270     0.7380 ca         1 ZS4       0.943900
      8 NAP         -2.5700     0.1970     0.2800 nb         1 ZS4      -0.856500
      9 NAT         -2.4850     2.3150     1.1790 nb         1 ZS4      -0.811000
     10 CAS         -3.8120     2.3760     1.1570 ca         1 ZS4       0.943900
     11 NAY         -4.4580     3.5070     1.6140 nh         1 ZS4      -0.677300
     12 CAZ         -5.9170     3.3630     1.5000 c3         1 ZS4       0.135050
     13 CAI         -6.5900     4.6590     1.9610 c3         1 ZS4       0.135400
     14 OBD         -6.1780     4.9540     3.2990 os         1 ZS4      -0.421100
     15 CBC         -4.7630     5.1020     3.4460 c3         1 ZS4       0.135400
     16 CAX         -4.0710     3.8110     3.0000 c3         1 ZS4       0.135050
     17 NAN         -4.5180     1.3490     0.6940 nb         1 ZS4      -0.856500
     18 CAO         -3.8970     0.2590     0.2590 ca         1 ZS4       0.860500
     19 NAJ         -4.6350    -0.8170    -0.2200 na         1 ZS4      -0.167100
     20 CAK         -4.4040    -1.5150    -1.3930 ca         1 ZS4      -0.055200
     21 CAL         -3.4630    -1.4120    -2.4060 ca         1 ZS4      -0.115000
     22 CAM         -3.5050    -2.2870    -3.4720 ca         1 ZS4      -0.107000
     23 CAH         -4.4840    -3.2680    -3.5370 ca         1 ZS4      -0.141000
     24 CAG         -5.4250    -3.3850    -2.5410 ca         1 ZS4      -0.064000
     25 CAF         -5.3960    -2.5070    -1.4530 ca         1 ZS4       0.089400
     26 NAE         -6.1650    -2.3700    -0.3420 nc         1 ZS4      -0.548100
     27 CAD         -5.7200    -1.3870     0.3830 cd         1 ZS4       0.370800
     28 CAC         -6.3140    -0.9400     1.6930 c3         1 ZS4       0.418600
     29 FA          -7.0270    -1.9980     2.2670 f          1 ZS4      -0.222800
     30 FB          -5.2900    -0.5420     2.5590 f          1 ZS4      -0.222800
     31 HAQ1        -0.3600    -0.9100     0.4640 h1         1 ZS4       0.064575
     32 HAQ2        -0.3600     0.0600    -1.0200 h1         1 ZS4       0.064575
     33 HAR1         1.8910     0.8860    -0.5080 h1         1 ZS4       0.060075
     34 HAR2         1.8910    -0.8860    -0.5080 h1         1 ZS4       0.060075
     35 HBB1         1.9240     1.0360     3.1320 h1         1 ZS4       0.060075
     36 HBB2         1.9100     2.0360     1.6680 h1         1 ZS4       0.060075
     37 HBA1        -0.3280     2.0070     2.6720 h1         1 ZS4       0.064575
     38 HBA2        -0.3400     0.2350     2.6340 h1         1 ZS4       0.064575
     39 HAZ1        -6.1810     3.1670     0.4680 h1         1 ZS4       0.064575
     40 HAZ2        -6.2480     2.5420     2.1260 h1         1 ZS4       0.064575
     41 HAX1        -4.3760     2.9970     3.6460 h1         1 ZS4       0.064575
     42 HAX2        -2.9970     3.9410     3.0540 h1         1 ZS4       0.064575
     43 HAI1        -7.6660     4.5360     1.9350 h1         1 ZS4       0.060075
     44 HAI2        -6.2970     5.4700     1.3060 h1         1 ZS4       0.060075
     45 HBC1        -4.5270     5.2970     4.4850 h1         1 ZS4       0.060075
     46 HBC2        -4.4210     5.9250     2.8310 h1         1 ZS4       0.060075
     47 HAL         -2.6970    -0.6480    -2.3610 ha         1 ZS4       0.141000
     48 HAM         -2.7700    -2.2060    -4.2640 ha         1 ZS4       0.137000
     49 HAH         -4.5060    -3.9490    -4.3800 ha         1 ZS4       0.138000
     50 HAG         -6.1860    -4.1540    -2.5990 ha         1 ZS4       0.148000
     51 HAC         -6.9840    -0.1060     1.5200 h2         1 ZS4       0.094700
@<TRIPOS>BOND
     1     1     2 1
     2     1     6 1
     3     2     3 1
     4     3     4 1
     5     4     5 1
     6     5     6 1
     7     6     7 1
     8     7     8 ar
     9     7     9 ar
    10     8    18 ar
    11     9    10 ar
    12    10    11 1
    13    10    17 ar
    14    11    12 1
    15    11    16 1
    16    12    13 1
    17    13    14 1
    18    14    15 1
    19    15    16 1
    20    17    18 ar
    21    18    19 1
    22    19    20 1
    23    19    27 1
    24    20    21 ar
    25    20    25 ar
    26    21    22 ar
    27    22    23 ar
    28    23    24 ar
    29    24    25 ar
    30    25    26 1
    31    26    27 2
    32    27    28 1
    33    28    29 1
    34    28    30 1
    35     1    31 1
    36     1    32 1
    37     2    33 1
    38     2    34 1
    39     4    35 1
    40     4    36 1
    41     5    37 1
    42     5    38 1
    43    12    39 1
    44    12    40 1
    45    16    41 1
    46    16    42 1
    47    13    43 1
    48    13    44 1
    49    15    45 1
    50    15    46 1
    51    21    47 1
    52    22    48 1
    53    23    49 1
    54    24    50 1
    55    28    51 1
@<TRIPOS>SUBSTRUCTURE
     1 ZS4         1 TEMP              0 ****  ****    0 ROOT
