@<TRIPOS>MOLECULE
ZS8
   33    33     1     0     0
SMALL
bcc


@<TRIPOS>ATOM
      1 N            1.4690     0.0000     0.0000 nz         1 ZS8       0.459000
      2 CA           0.0000     0.0000     0.0000 c3         1 ZS8      -0.220000
      3 C           -0.5020     0.0000     1.4210 c2         1 ZS8       0.386000
      4 O            0.1710     0.6680     2.3700 o          1 ZS8      -0.536500
      5 CB2         -0.5110     1.2480    -0.7220 c3         1 ZS8      -0.169000
      6 CB1         -0.5090    -1.2510    -0.7200 c3         1 ZS8      -0.226000
      7 CG1          0.1010    -1.3150    -2.1220 DU         1 ZS8      -0.174000
      8 CD1         -0.4080    -2.5650    -2.8420 c3         1 ZS8      -0.203000
      9 CZ1          0.2010    -2.6310    -4.2440 c3         1 ZS8      -0.101000
     10 CE1         -0.3080    -3.8800    -4.9640 c3         1 ZS8       0.044000
     11 CT1          0.2790    -3.9430    -6.3120 c1         1 ZS8      -0.217000
     12 CI1          0.7650    -3.9960    -7.3800 c1         1 ZS8      -0.182000
     13 CK1          1.6410    -4.1580    -8.6440 c3         1 ZS8       0.032000
     14 H1           1.6390     0.7050     0.6900 hn         1 ZS8       0.113333
     15 H2           1.6900     0.3310    -0.9180 hn         1 ZS8       0.113333
     16 H7          -0.1970     2.2800    -0.6200 hc         1 ZS8       0.071000
     17 H8          -1.5920     1.1830    -0.7020 hc         1 ZS8       0.071000
     18 H9          -0.5570     0.8570    -1.7310 hc         1 ZS8       0.071000
     19 H10         -0.8030    -1.2020    -1.7620 DU         1 ZS8       0.250000
     20 H11         -0.0450    -2.0970    -0.2270 hc         1 ZS8       0.105000
     21 H12          1.1770    -1.2970    -2.2390 ha         1 ZS8       0.055500
     22 H13         -0.3860    -0.4980    -2.6400 ha         1 ZS8       0.055500
     23 H14          0.0320    -3.5180    -2.5710 hc         1 ZS8       0.086000
     24 H15         -1.3680    -3.0610    -2.9180 hc         1 ZS8       0.086000
     25 H16         -0.3470    -1.8040    -4.6790 hc         1 ZS8       0.073000
     26 H17          1.2730    -2.6980    -4.1000 hc         1 ZS8       0.073000
     27 H18         -1.3630    -3.9180    -5.2080 hc         1 ZS8       0.062500
     28 H19         -0.1290    -4.8590    -4.5360 hc         1 ZS8       0.062500
     29 H20          0.8170    -3.9220    -9.3070 hc         1 ZS8       0.060333
     30 H21          1.7840    -5.1030    -9.1550 hc         1 ZS8       0.060333
     31 H22          2.2320    -3.2570    -8.5350 hc         1 ZS8       0.060333
     32 OXT         -1.5110    -0.6010     1.7050 o          1 ZS8      -0.536500
     33 HN3          1.8010    -0.3780    -0.8650 hn         1 ZS8       0.113333
@<TRIPOS>BOND
     1     1     2 1   
     2     1    14 1   
     3     1    15 1   
     4     1    33 1   
     5     2     3 1   
     6     2     5 1   
     7     2     6 1   
     8     3     4 1   
     9     3    32 1   
    10     5    16 1   
    11     5    17 1   
    12     5    18 1   
    13     6     7 1   
    14     6    19 1   
    15     6    20 1   
    16     7     8 1   
    17     7    19 1   
    18     7    21 1   
    19     7    22 1   
    20     8     9 1   
    21     8    23 1   
    22     8    24 1   
    23     9    10 1   
    24     9    25 1   
    25     9    26 1   
    26    10    11 1   
    27    10    27 1   
    28    10    28 1   
    29    11    12 1   
    30    12    13 1   
    31    13    29 1   
    32    13    30 1   
    33    13    31 1   
@<TRIPOS>SUBSTRUCTURE
     1 ZS8         1 TEMP              0 ****  ****    0 ROOT
