@<TRIPOS>MOLECULE
molecule
   33    32     1     0     0
SMALL
bcc


@<TRIPOS>ATOM
      1 N            1.4690     0.0000     0.0000 nz         1 ZS8      -0.943600
      2 CA           0.0000     0.0000     0.0000 c3         1 ZS8       0.020200
      3 C           -0.5020     0.0000     1.4210 c          1 ZS8       0.896600
      4 O            0.1710     0.6680     2.3700 o          1 ZS8      -0.767300
      5 CB2         -0.5110     1.2480    -0.7220 c3         1 ZS8      -0.151100
      6 CB1         -0.5090    -1.2510    -0.7200 c3         1 ZS8      -0.208400
      7 CG1          0.1010    -1.3150    -2.1220 c3         1 ZS8      -0.143400
      8 CD1         -0.4080    -2.5650    -2.8420 c3         1 ZS8      -0.175400
      9 CZ1          0.2010    -2.6310    -4.2440 c3         1 ZS8      -0.073400
     10 CE1         -0.3080    -3.8800    -4.9640 c3         1 ZS8      -0.004300
     11 CT1          0.2790    -3.9430    -6.3120 c1         1 ZS8      -0.174100
     12 CI1          0.7650    -3.9960    -7.3800 c1         1 ZS8      -0.146100
     13 CK1          1.6410    -4.1580    -8.6440 c3         1 ZS8      -0.024000
     14 H1           1.6390     0.7050     0.6900 hn         1 ZS8       0.488133
     15 H2           1.6900     0.3310    -0.9180 hn         1 ZS8       0.488133
     16 H7          -0.1970     2.2800    -0.6200 hc         1 ZS8       0.060367
     17 H8          -1.5920     1.1830    -0.7020 hc         1 ZS8       0.060367
     18 H9          -0.5570     0.8570    -1.7310 hc         1 ZS8       0.060367
     19 H10         -0.8030    -1.2020    -1.7620 hc         1 ZS8       0.173200
     20 H11         -0.0450    -2.0970    -0.2270 hc         1 ZS8       0.173200
     21 H12          1.1770    -1.2970    -2.2390 hc         1 ZS8       0.035200
     22 H13         -0.3860    -0.4980    -2.6400 hc         1 ZS8       0.035200
     23 H14          0.0320    -3.5180    -2.5710 hc         1 ZS8       0.076200
     24 H15         -1.3680    -3.0610    -2.9180 hc         1 ZS8       0.076200
     25 H16         -0.3470    -1.8040    -4.6790 hc         1 ZS8       0.061700
     26 H17          1.2730    -2.6980    -4.1000 hc         1 ZS8       0.061700
     27 H18         -1.3630    -3.9180    -5.2080 hc         1 ZS8       0.061700
     28 H19         -0.1290    -4.8590    -4.5360 hc         1 ZS8       0.061700
     29 H20          0.8170    -3.9220    -9.3070 hc         1 ZS8       0.066367
     30 H21          1.7840    -5.1030    -9.1550 hc         1 ZS8       0.066367
     31 H22          2.2320    -3.2570    -8.5350 hc         1 ZS8       0.066367
     32 OXT         -1.5110    -0.6010     1.7050 o          1 ZS8      -0.767300
     33 HN3          1.8010    -0.3780    -0.8650 hn         1 ZS8       0.488133
@<TRIPOS>BOND
     1    13    12 1
     2    12    11 3
     3    11    10 1
     4    10     9 1
     5     9     8 1
     6     8     7 1
     7     7     6 1
     8     6     2 1
     9     2     3 1
    10     2     1 1
    11     2     5 1
    12     3     4 1
    13     1    14 1
    14     1    15 1
    15     5    16 1
    16     5    17 1
    17     5    18 1
    18     6    19 1
    19     6    20 1
    20     7    21 1
    21     7    22 1
    22     8    23 1
    23     8    24 1
    24     9    25 1
    25     9    26 1
    26    10    27 1
    27    10    28 1
    28    13    29 1
    29    13    30 1
    30    13    31 1
    31     3    32 1
    32    33     1 1
@<TRIPOS>SUBSTRUCTURE
     1 ZS8         1 TEMP              0 ****  ****    0 ROOT
