@<TRIPOS>MOLECULE
ZSC
   27    27     1     0     0
SMALL
bcc


@<TRIPOS>ATOM
      1 CAG          0.0000     0.0000     0.0000 c3         1 ZSC       0.258100
      2 CAH          2.5190    -1.7560     1.8260 c3         1 ZSC      -0.014300
      3 OAJ          0.4940     1.4940    -4.7330 o          1 ZSC      -0.910300
      4 OAK          6.0470    -1.4960    -1.5260 o          1 ZSC      -0.910300
      5 OAP          1.3970     0.6060     2.3560 o          1 ZSC      -0.594800
      6 OAQ          3.5390     0.6050     1.1180 o          1 ZSC      -0.594800
      7 CBH          3.5570    -0.0010    -3.6240 ca         1 ZSC      -0.031000
      8 CBI          1.5660     0.5080    -2.3550 ca         1 ZSC      -0.131000
      9 CBJ          3.4530    -0.5090    -1.2650 ca         1 ZSC      -0.131000
     10 O2           2.2950     1.0510    -5.9520 o          1 ZSC      -0.910300
     11 O1           6.2030    -1.0550    -3.6950 o          1 ZSC      -0.910300
     12 CCF          2.2610     0.5090    -3.5660 ca         1 ZSC      -0.127600
     13 CCG          4.1540    -0.5100    -2.4730 ca         1 ZSC      -0.127600
     14 CCI          2.1640    -0.0000    -1.2100 ca         1 ZSC      -0.015400
     15 NCS          1.4650     0.0000     0.0000 nh         1 ZSC      -0.333900
     16 SCU          2.2930     0.0000     1.4340 s6         1 ZSC       0.945900
     17 HAG         -0.3610    -0.3260     0.9680 h1         1 ZSC      -0.002633
     18 HAGA        -0.3610    -0.6750    -0.7660 h1         1 ZSC      -0.002633
     19 HAGB        -0.3610     1.0010    -0.2020 h1         1 ZSC      -0.002633
     20 HAH          2.1520    -2.3600     1.0050 h1         1 ZSC       0.061033
     21 HAHA         3.5720    -1.9590     1.9810 h1         1 ZSC       0.061033
     22 HAHB         1.9690    -1.9990     2.7270 h1         1 ZSC       0.061033
     23 HBH          4.0980    -0.0020    -4.5620 ha         1 ZSC       0.155000
     24 HBI          0.5580     0.9040    -2.3090 ha         1 ZSC       0.115500
     25 HBJ          3.9180    -0.9040    -0.3700 ha         1 ZSC       0.115500
     26 CBY          5.5270    -1.0530    -2.5300 c          1 ZSC       0.988700
     27 CBX          1.6240     1.0500    -4.7840 c          1 ZSC       0.988700
@<TRIPOS>BOND
     1     1    15 1   
     2     1    17 1   
     3     1    18 1   
     4     1    19 1   
     5     2    16 1   
     6     2    20 1   
     7     2    21 1   
     8     2    22 1   
     9     3    27 1   
    10     4    26 1   
    11     5    16 2   
    12     6    16 2   
    13     7    12 ar  
    14     7    13 ar  
    15     7    23 1   
    16     8    12 ar  
    17     8    14 ar  
    18     8    24 1   
    19     9    13 ar  
    20     9    14 ar  
    21     9    25 1   
    22    10    27 1   
    23    11    26 1   
    24    12    27 1   
    25    13    26 1   
    26    14    15 1   
    27    15    16 1   
@<TRIPOS>SUBSTRUCTURE
     1 ZSC         1 TEMP              0 ****  ****    0 ROOT
