@<TRIPOS>MOLECULE
molecule
   44    47     1     0     0
SMALL
bcc


@<TRIPOS>ATOM
      1 F            0.0000     0.0000     0.0000 f          1 ZSO      -0.140900
      2 C            1.3510     0.0000     0.0000 ca         1 ZSO       0.130900
      3 C5           2.0430     0.0000     1.2000 ca         1 ZSO      -0.164500
      4 C4           3.4240     0.0000     1.1990 ca         1 ZSO      -0.100500
      5 C3           4.1160     0.0000     0.0020 ca         1 ZSO      -0.100300
      6 C2           3.4260     0.0010    -1.1960 ca         1 ZSO      -0.100500
      7 C1           2.0440    -0.0050    -1.1980 ca         1 ZSO      -0.164500
      8 C6           5.6230    -0.0010     0.0020 c3         1 ZSO      -0.020400
      9 C10          6.1350    -1.2460    -0.7260 c3         1 ZSO      -0.059700
     10 C9           7.6640    -1.2100    -0.7760 c3         1 ZSO       0.162800
     11 N            8.1040     0.0040    -1.4760 n7         1 ZSO      -0.819200
     12 C8           7.6640     1.2130    -0.7690 c3         1 ZSO       0.154800
     13 C7           6.1350     1.2500    -0.7190 c3         1 ZSO      -0.068400
     14 C11          5.6770    -2.5000     0.0220 c3         1 ZSO       0.138400
     15 O            6.0550    -3.6620    -0.7190 os         1 ZSO      -0.334900
     16 C12          5.7210    -4.8680    -0.1880 ca         1 ZSO       0.105100
     17 C18          6.0580    -6.0040    -0.8560 ca         1 ZSO      -0.114000
     18 C17          5.7140    -7.2600    -0.3110 ca         1 ZSO      -0.159000
     19 C15          4.9960    -7.3020     0.9720 ca         1 ZSO      -0.059000
     20 C14          4.6780    -6.0840     1.6100 ca         1 ZSO      -0.072000
     21 C13          5.0420    -4.9120     1.0370 ca         1 ZSO      -0.166000
     22 C16          5.8920    -8.5730    -0.7030 cc         1 ZSO      -0.125100
     23 N2           5.3450    -9.3610     0.2330 na         1 ZSO       0.021800
     24 N1           4.7980    -8.5780     1.2550 nc         1 ZSO      -0.269400
     25 H1           1.5010     0.0000     2.1380 ha         1 ZSO       0.146000
     26 H2           3.9660     0.0000     2.1370 ha         1 ZSO       0.139500
     27 H3           3.9690    -0.0010    -2.1340 ha         1 ZSO       0.139500
     28 H4           1.5030    -0.0050    -2.1370 ha         1 ZSO       0.146000
     29 H5           5.9900    -0.0040     1.0210 hc         1 ZSO       0.054700
     30 H6           5.7430    -1.2580    -1.7360 hc         1 ZSO       0.081700
     31 H7           8.0560    -1.2050     0.2340 h1         1 ZSO       0.041200
     32 H8           8.0270    -2.0820    -1.3060 h1         1 ZSO       0.041200
     33 H9           9.1020     0.0040    -1.5470 hn         1 ZSO       0.356800
     34 H11          8.0280     2.0890    -1.2930 h1         1 ZSO       0.032200
     35 H12          8.0560     1.2020     0.2410 h1         1 ZSO       0.032200
     36 H13          5.7420     1.2700    -1.7290 hc         1 ZSO       0.054700
     37 H14          5.8130     2.1330    -0.1820 hc         1 ZSO       0.054700
     38 H15          6.1430    -2.5280     1.0000 h1         1 ZSO       0.038700
     39 H16          4.6000    -2.4790     0.1360 h1         1 ZSO       0.038700
     40 H17          6.4700    -5.9420    -1.8560 ha         1 ZSO       0.141000
     41 H18          4.1540    -6.0870     2.5580 ha         1 ZSO       0.141000
     42 H19          4.8000    -3.9820     1.5390 ha         1 ZSO       0.136000
     43 H20          6.3870    -8.9070    -1.6070 h4         1 ZSO       0.175000
     44 H21          5.3300   -10.3620     0.2040 hn         1 ZSO       0.330700
@<TRIPOS>BOND
     1     7     6 ar
     2     7     2 ar
     3     1     2 1
     4     6     5 ar
     5    20    21 ar
     6    20    19 ar
     7     2     3 ar
     8    21    16 ar
     9    19    24 2
    10    19    18 ar
    11    24    23 1
    12     5     8 1
    13     5     4 ar
    14    16    15 1
    15    16    17 ar
    16     3     4 ar
    17    15    14 1
    18     8    13 1
    19     8     9 1
    20    13    12 1
    21    18    17 ar
    22    18    22 2
    23    23    22 1
    24    12    11 1
    25    14     9 1
    26     9    10 1
    27    10    11 1
    28     3    25 1
    29     4    26 1
    30     6    27 1
    31     7    28 1
    32     8    29 1
    33     9    30 1
    34    10    31 1
    35    10    32 1
    36    11    33 1
    37    12    34 1
    38    12    35 1
    39    13    36 1
    40    13    37 1
    41    14    38 1
    42    14    39 1
    43    17    40 1
    44    20    41 1
    45    21    42 1
    46    22    43 1
    47    23    44 1
@<TRIPOS>SUBSTRUCTURE
     1 ZSO         1 TEMP              0 ****  ****    0 ROOT
