@<TRIPOS>MOLECULE
ZSO
   44    47     1     0     0
SMALL
bcc


@<TRIPOS>ATOM
      1 F            0.0000     0.0000     0.0000 f          1 ZSO      -0.128900
      2 C            1.3510     0.0000     0.0000 ca         1 ZSO       0.102900
      3 C5           2.0430     0.0000     1.2000 ca         1 ZSO      -0.129500
      4 C4           3.4240     0.0000     1.1990 ca         1 ZSO      -0.074000
      5 C3           4.1160     0.0000     0.0020 ca         1 ZSO      -0.102300
      6 C2           3.4260     0.0010    -1.1960 ca         1 ZSO      -0.074000
      7 C1           2.0440    -0.0050    -1.1980 ca         1 ZSO      -0.129500
      8 C6           5.6230    -0.0010     0.0020 c3         1 ZSO       0.012600
      9 C10          6.1350    -1.2460    -0.7260 c3         1 ZSO      -0.054700
     10 C9           7.6640    -1.2100    -0.7760 c3         1 ZSO       0.146800
     11 N            8.1040     0.0040    -1.4760 n7         1 ZSO      -0.578200
     12 C8           7.6640     1.2130    -0.7690 c3         1 ZSO       0.145800
     13 C7           6.1350     1.2500    -0.7190 c3         1 ZSO      -0.022400
     14 C11          5.6770    -2.5000     0.0220 c3         1 ZSO       0.195400
     15 O            6.0550    -3.6620    -0.7190 os         1 ZSO      -0.307900
     16 C12          5.7210    -4.8680    -0.1880 ca         1 ZSO       0.113100
     17 C18          6.0580    -6.0040    -0.8560 ca         1 ZSO      -0.093000
     18 C17          5.7140    -7.2600    -0.3110 ca         1 ZSO      -0.155000
     19 C15          4.9960    -7.3020     0.9720 ca         1 ZSO      -0.031000
     20 C14          4.6780    -6.0840     1.6100 ca         1 ZSO      -0.040000
     21 C13          5.0420    -4.9120     1.0370 ca         1 ZSO      -0.161000
     22 C16          5.8920    -8.5730    -0.7030 cc         1 ZSO      -0.292100
     23 N2           5.3450    -9.3610     0.2330 na         1 ZSO       0.551800
     24 N1           4.7980    -8.5780     1.2550 nc         1 ZSO      -0.437400
     25 H1           1.5010     0.0000     2.1380 ha         1 ZSO       0.119500
     26 H2           3.9660     0.0000     2.1370 ha         1 ZSO       0.114000
     27 H3           3.9690    -0.0010    -2.1340 ha         1 ZSO       0.114000
     28 H4           1.5030    -0.0050    -2.1370 ha         1 ZSO       0.119500
     29 H5           5.9900    -0.0040     1.0210 hc         1 ZSO       0.031700
     30 H6           5.7430    -1.2580    -1.7360 hc         1 ZSO       0.054700
     31 H7           8.0560    -1.2050     0.2340 h1         1 ZSO       0.014700
     32 H8           8.0270    -2.0820    -1.3060 h1         1 ZSO       0.014700
     33 H9           9.1020     0.0040    -1.5470 hn         1 ZSO       0.252800
     34 H11          8.0280     2.0890    -1.2930 h1         1 ZSO       0.005700
     35 H12          8.0560     1.2020     0.2410 h1         1 ZSO       0.005700
     36 H13          5.7420     1.2700    -1.7290 hc         1 ZSO       0.025700
     37 H14          5.8130     2.1330    -0.1820 hc         1 ZSO       0.025700
     38 H15          6.1430    -2.5280     1.0000 h1         1 ZSO       0.007700
     39 H16          4.6000    -2.4790     0.1360 h1         1 ZSO       0.007700
     40 H17          6.4700    -5.9420    -1.8560 ha         1 ZSO       0.115000
     41 H18          4.1540    -6.0870     2.5580 ha         1 ZSO       0.110000
     42 H19          4.8000    -3.9820     1.5390 ha         1 ZSO       0.117000
     43 H20          6.3870    -8.9070    -1.6070 h4         1 ZSO       0.149000
     44 H21          5.3300   -10.3620     0.2040 hn         1 ZSO       0.138700
@<TRIPOS>BOND
     1     1     2 1   
     2     2     3 ar  
     3     2     7 ar  
     4     3     4 ar  
     5     3    25 1   
     6     4     5 ar  
     7     4    26 1   
     8     5     6 ar  
     9     5     8 1   
    10     6     7 ar  
    11     6    27 1   
    12     7    28 1   
    13     8     9 1   
    14     8    13 1   
    15     8    29 1   
    16     9    10 1   
    17     9    14 1   
    18     9    30 1   
    19    10    11 1   
    20    10    31 1   
    21    10    32 1   
    22    11    12 1   
    23    11    33 1   
    24    12    13 1   
    25    12    34 1   
    26    12    35 1   
    27    13    36 1   
    28    13    37 1   
    29    14    15 1   
    30    14    38 1   
    31    14    39 1   
    32    15    16 1   
    33    16    17 ar  
    34    16    21 ar  
    35    17    18 ar  
    36    17    40 1   
    37    18    19 ar  
    38    18    22 2   
    39    19    20 ar  
    40    19    24 2   
    41    20    21 ar  
    42    20    41 1   
    43    21    42 1   
    44    22    23 1   
    45    22    43 1   
    46    23    24 1   
    47    23    44 1   
@<TRIPOS>SUBSTRUCTURE
     1 ZSO         1 TEMP              0 ****  ****    0 ROOT
