@<TRIPOS>MOLECULE
ZSP
   29    30     1     0     0
SMALL
bcc


@<TRIPOS>ATOM
      1 O17          0.0000     0.0000     0.0000 o          1 ZSP      -0.580500
      2 C16          1.2200     0.0000     0.0000 c          1 ZSP       0.597700
      3 C08          1.9430     0.0000     1.2100 cc         1 ZSP      -0.002600
      4 N07          1.3110    -0.0110     2.4150 ne         1 ZSP      -0.434300
      5 C06          1.9470     0.2720     3.5190 cf         1 ZSP       0.460600
      6 C04          1.2320     0.2240     4.7920 cf         1 ZSP      -0.109500
      7 C02          0.2840    -0.7090     4.9970 c2         1 ZSP       0.154900
      8 O03         -0.4770    -0.6670     6.1180 oh         1 ZSP      -0.477100
      9 C01          0.0690    -1.7990     3.9790 c3         1 ZSP       0.012100
     10 O05          1.5240     1.1240     5.7720 oh         1 ZSP      -0.473100
     11 C11          3.4070     0.6450     3.5050 c3         1 ZSP       0.102500
     12 N10          4.0510     0.0150     2.3410 nu         1 ZSP      -0.351000
     13 C09          3.3450     0.0050     1.1520 cd         1 ZSP       0.120600
     14 N12          3.9610     0.0000    -0.0270 nd         1 ZSP      -0.419300
     15 C13          3.2730    -0.0010    -1.1520 cc         1 ZSP      -0.021200
     16 N14          3.9470    -0.0070    -2.3450 nz         1 ZSP       0.224400
     17 N15          1.9120    -0.0060    -1.1610 ns         1 ZSP       0.029600
     18 H1          -0.2310    -1.3730     6.6920 ho         1 ZSP       0.422000
     19 H2          -0.4690    -2.6210     4.4380 hc         1 ZSP       0.028700
     20 H3           1.0280    -2.1520     3.6190 hc         1 ZSP       0.028700
     21 H4          -0.5080    -1.4100     3.1490 hc         1 ZSP       0.028700
     22 H5           0.9830     1.8900     5.6670 ho         1 ZSP       0.411000
     23 H6           3.5050     1.7210     3.4340 h1         1 ZSP       0.050200
     24 H7           3.6960     0.8060    -2.8730 hn         1 ZSP       0.215800
     25 H8           3.7030    -0.8290    -2.8620 hn         1 ZSP       0.215800
     26 H9           1.4200    -0.0070    -2.0330 hn         1 ZSP       0.185500
     27 H10          3.8790     0.2920     4.4140 h1         1 ZSP       0.050200
     28 H11          4.9640    -0.3900     2.4070 hn         1 ZSP       0.314800
     29 H143         4.9320    -0.0130    -2.1720 hn         1 ZSP       0.215800
@<TRIPOS>BOND
     1     1     2 2   
     2     2     3 1   
     3     2    17 1   
     4     3     4 1   
     5     3    13 2   
     6     4     5 2   
     7     5     6 1   
     8     5    11 1   
     9     6     7 2   
    10     6    10 1   
    11     7     8 1   
    12     7     9 1   
    13     8    18 1   
    14     9    19 1   
    15     9    20 1   
    16     9    21 1   
    17    10    22 1   
    18    11    12 1   
    19    11    23 1   
    20    11    27 1   
    21    12    13 1   
    22    12    28 1   
    23    13    14 1   
    24    14    15 2   
    25    15    16 1   
    26    15    17 1   
    27    16    24 1   
    28    16    25 1   
    29    16    29 1   
    30    17    26 1   
@<TRIPOS>SUBSTRUCTURE
     1 ZSP         1 TEMP              0 ****  ****    0 ROOT
