@<TRIPOS>MOLECULE
molecule
   29    30     1     0     0
SMALL
bcc


@<TRIPOS>ATOM
      1 O17          0.0000     0.0000     0.0000 o          1 ZSP      -0.537500
      2 C16          1.2200     0.0000     0.0000 c          1 ZSP       0.708700
      3 C08          1.9430     0.0000     1.2100 cc         1 ZSP       0.013400
      4 N07          1.3110    -0.0110     2.4150 ne         1 ZSP      -0.549300
      5 C06          1.9470     0.2720     3.5190 cf         1 ZSP       0.499600
      6 C04          1.2320     0.2240     4.7920 cf         1 ZSP      -0.095500
      7 C02          0.2840    -0.7090     4.9970 c2         1 ZSP       0.150900
      8 O03         -0.4770    -0.6670     6.1180 oh         1 ZSP      -0.498100
      9 C01          0.0690    -1.7990     3.9790 c3         1 ZSP      -0.086900
     10 O05          1.5240     1.1240     5.7720 oh         1 ZSP      -0.495100
     11 C11          3.4070     0.6450     3.5050 c3         1 ZSP       0.157500
     12 N10          4.0510     0.0150     2.3410 nu         1 ZSP      -0.776000
     13 C09          3.3450     0.0050     1.1520 cd         1 ZSP       0.337600
     14 N12          3.9610     0.0000    -0.0270 nd         1 ZSP      -0.600300
     15 C13          3.2730    -0.0010    -1.1520 cc         1 ZSP       0.453800
     16 N14          3.9470    -0.0070    -2.3450 nz         1 ZSP      -0.729600
     17 N15          1.9120    -0.0060    -1.1610 ns         1 ZSP      -0.452400
     18 H1          -0.2310    -1.3730     6.6920 ho         1 ZSP       0.443000
     19 H2           1.0280    -2.1520     3.6190 hc         1 ZSP       0.066367
     20 H3          -0.4690    -2.6210     4.4380 hc         1 ZSP       0.066367
     21 H4          -0.5080    -1.4100     3.1490 hc         1 ZSP       0.066367
     22 H5           0.9830     1.8890     5.6670 ho         1 ZSP       0.428000
     23 H6           3.5050     1.7210     3.4340 h1         1 ZSP       0.087700
     24 H7           4.9320    -0.0030    -2.1720 hn         1 ZSP       0.477467
     25 H8           3.7020    -0.8280    -2.8620 hn         1 ZSP       0.477467
     26 H9           1.4200    -0.0070    -2.0330 hn         1 ZSP       0.346500
     27 H10          3.8790     0.2920     4.4140 h1         1 ZSP       0.087700
     28 H11          4.9640    -0.3900     2.4070 hn         1 ZSP       0.472800
     29 H143         3.7070     0.8130    -2.8680 hn         1 ZSP       0.477467
@<TRIPOS>BOND
     1    16    15 1
     2    15    14 2
     3    15    17 1
     4    14    13 1
     5    17     2 1
     6    13    12 1
     7    13     3 2
     8    12    11 1
     9     2     3 1
    10     2     1 2
    11     3     4 1
    12    11     5 1
    13     4     5 2
    14     5     6 1
    15     9     7 1
    16     7     6 2
    17     7     8 1
    18     6    10 1
    19     8    18 1
    20     9    19 1
    21     9    20 1
    22     9    21 1
    23    10    22 1
    24    11    23 1
    25    16    24 1
    26    16    25 1
    27    17    26 1
    28    11    27 1
    29    12    28 1
    30    29    16 1
@<TRIPOS>SUBSTRUCTURE
     1 ZSP         1 TEMP              0 ****  ****    0 ROOT
