@<TRIPOS>MOLECULE
ZST
   40    44     1     0     0
SMALL
bcc


@<TRIPOS>ATOM
      1 C1          0.5060   -0.6430   -0.5130 c         1 ZST      0.679100
      2 O1          0.1770   -0.9950   -1.6630 o         1 ZST     -0.639500
      3 C2          1.8960   -0.7350   -0.0060 ca        1 ZST     -0.143600
      4 C3          2.2010   -0.2670    1.2900 ca        1 ZST     -0.097900
      5 C4          1.0920    0.2630    2.0830 cc        1 ZST      0.390900
      6 C5          2.9040   -1.2600   -0.8260 ca        1 ZST     -0.074000
      7 C6          4.2090   -1.3300   -0.3550 ca        1 ZST     -0.153000
      8 C7          4.5160   -0.8750    0.9330 ca        1 ZST     -0.112000
      9 C8          3.5250   -0.3470    1.7500 ca        1 ZST     -0.124000
     10 N1         -0.4630   -0.1700    0.4090 n         1 ZST     -0.196800
     11 N2         -0.1520    0.2340    1.6390 nd        1 ZST     -0.432300
     12 C9         -1.7900    0.2480   -0.0850 c3        1 ZST      0.104700
     13 C10        -2.2080    1.6350    0.3270 c2        1 ZST      0.370600
     14 C11        -2.5880    3.8100    1.3470 ca        1 ZST      0.028500
     15 C12        -3.4670    3.4670    0.2550 ca        1 ZST      0.062400
     16 C13        -2.7410    5.0500    1.9880 ca        1 ZST     -0.078000
     17 C14        -3.7210    5.9280    1.5760 ca        1 ZST     -0.126000
     18 C15        -4.5780    5.5880    0.5050 ca        1 ZST     -0.202300
     19 C16        -4.4650    4.3780   -0.1550 ca        1 ZST     -0.034000
     20 N3         -3.2320    2.2180   -0.3170 ne        1 ZST     -0.580100
     21 S1         -1.5100    2.5690    1.6070 s4        1 ZST     -0.184300
     22 C17         1.3450    0.9220    3.4050 c3        1 ZST     -0.208700
     23 C18         0.3230    2.0100    3.7550 c         1 ZST      0.762600
     24 O2         -0.0480    2.8410    2.8290 os        1 ZST     -0.438900
     25 O3         -0.0750    2.1190    4.9340 o         1 ZST     -0.747500
     26 C19        -5.6300    6.5930    0.0750 c3        1 ZST      0.690200
     27 F1         -6.2180    7.2980    1.1010 f         1 ZST     -0.254633
     28 F2         -5.1730    7.5860   -0.7650 f         1 ZST     -0.254633
     29 F3         -6.7040    6.0720   -0.6090 f         1 ZST     -0.254633
     30 H5          2.6410   -1.6110   -1.8370 ha        1 ZST      0.154000
     31 H6          5.0030   -1.7430   -0.9930 ha        1 ZST      0.128000
     32 H7          5.5510   -0.9350    1.2980 ha        1 ZST      0.126000
     33 H8          3.7720    0.0060    2.7630 ha        1 ZST      0.144000
     34 H91        -2.5420   -0.4890    0.3220 h1        1 ZST      0.077700
     35 H92        -1.7640    0.1560   -1.2100 h1        1 ZST      0.077700
     36 H13        -2.0700    5.3070    2.8230 ha        1 ZST      0.146000
     37 H14        -3.8540    6.8990    2.0760 ha        1 ZST      0.127000
     38 H16        -5.1410    4.1220   -0.9850 ha        1 ZST      0.142000
     39 H171        2.3500    1.4170    3.3730 hc        1 ZST      0.061200
     40 H172        1.3480    0.1510    4.2180 hc        1 ZST      0.061200
@<TRIPOS>BOND
     1    1    2 2
     2    1    3 1
     3    1   10 1
     4    3    4 ar
     5    3    6 ar
     6    4    5 1
     7    4    9 ar
     8    5   11 2
     9    5   22 1
    10    6    7 ar
    11    6   30 1
    12    7    8 ar
    13    7   31 1
    14    8    9 ar
    15    8   32 1
    16    9   33 1
    17   10   11 1
    18   10   12 1
    19   12   13 1
    20   12   34 1
    21   12   35 1
    22   13   20 2
    23   13   21 1
    24   14   15 ar
    25   14   16 ar
    26   14   21 1
    27   15   19 ar
    28   15   20 1
    29   16   17 ar
    30   16   36 1
    31   17   18 ar
    32   17   37 1
    33   18   19 ar
    34   18   26 1
    35   19   38 1
    36   21   24 1
    37   22   23 1
    38   22   39 1
    39   22   40 1
    40   23   24 1
    41   23   25 2
    42   26   27 1
    43   26   28 1
    44   26   29 1
@<TRIPOS>SUBSTRUCTURE
     1 ZST         1 TEMP              0 ****  ****    0 ROOT
