@<TRIPOS>MOLECULE
ZSV
   75    72     1     0     0
SMALL
bcc


@<TRIPOS>ATOM
      1 C1         -1.7600   -1.3930    1.5590 c2        1 ZSV     -0.103000
      2 C2         -0.5920   -1.8530    0.8400 c2        1 ZSV     -0.431000
      3 C3         -1.7270   -0.4750    2.5390 c2        1 ZSV     -0.098000
      4 C4         -0.3880   -3.0060    0.2480 c1        1 ZSV      0.147000
      5 C5          0.4800    3.5720    6.8940 c1        1 ZSV      0.290000
      6 C6         -5.1410    0.7080    1.6980 c2        1 ZSV     -0.175000
      7 C7         -4.0950    2.7050    4.8450 c1        1 ZSV     -0.143000
      8 C8          0.7640    2.2970    7.0600 c2        1 ZSV     -0.553000
      9 C9         -5.3520    0.7860    2.9740 c1        1 ZSV     -0.161000
     10 C10        -4.9130    1.7510    5.1990 c2        1 ZSV     -0.084000
     11 C11        -0.5220    0.1520    3.0590 c2        1 ZSV     -0.161000
     12 C12         1.9010   -0.6990    7.3540 c2        1 ZSV     -0.206000
     13 C13        -3.2550    3.6520    4.5390 c2        1 ZSV     -0.172000
     14 C14         0.5910   -0.5350    3.3690 c2        1 ZSV     -0.087000
     15 C15         2.8160   -0.2160    6.2630 c3        1 ZSV      0.047000
     16 C16         1.4200    1.6330    8.1810 c2        1 ZSV      0.350000
     17 C17         1.2740    0.1450    8.2060 c2        1 ZSV      0.029000
     18 C18        -5.5720    0.8580    4.2660 c2        1 ZSV     -0.028000
     19 C20         0.9700   -4.8890    4.2770 c1        1 ZSV     -0.155000
     20 C21        -0.6190    1.6380    3.2210 c2        1 ZSV      0.338000
     21 C23        -4.5940    0.7220    8.6570 c2        1 ZSV      0.318000
     22 C24        -0.3850    0.4960    9.8430 c2        1 ZSV     -0.149000
     23 C25        -1.6810    0.4880    9.5060 c2        1 ZSV     -0.103000
     24 C28         1.8540    0.0530    3.8940 c3        1 ZSV      0.008000
     25 C29         2.5100   -0.7510    4.9330 c2        1 ZSV     -0.726000
     26 C30         0.8830   -4.4360    3.1720 c1        1 ZSV     -0.263000
     27 C32        -2.6960    1.3120   10.2040 c3        1 ZSV     -0.119000
     28 N33        -1.3360    2.0890    4.3180 n         1 ZSV     -0.364000
     29 N34         2.9270   -2.0740    4.6110 n4        1 ZSV      0.114000
     30 O35         0.5920   -2.7450    7.8330 oh        1 ZSV     -0.292000
     31 O36        -4.0800   -0.0600    7.7980 o         1 ZSV     -0.594500
     32 O37        -0.0430    2.4240    2.4430 o         1 ZSV     -0.373000
     33 O38         2.6510   -3.0010    7.2370 o         1 ZSV     -0.403000
     34 O39        -5.5390    1.5080    8.3440 o         1 ZSV     -0.594500
     35 O40         0.4950   -0.4020    9.2120 os        1 ZSV     -0.186000
     36 O41         2.0460    2.2320    9.0620 o         1 ZSV     -0.280000
     37 O42        -6.5740   -0.0570    4.7790 os        1 ZSV     -0.013000
     38 H1         -2.7230   -1.8300    1.2450 ha        1 ZSV      0.134000
     39 H2          0.2420   -1.1090    0.7960 ha        1 ZSV      0.206000
     40 H3         -2.6770   -0.1430    3.0030 ha        1 ZSV      0.154000
     41 H4          0.5860   -1.6320    3.2290 ha        1 ZSV      0.113000
     42 H5          3.8630   -0.4900    6.5870 hc        1 ZSV      0.072000
     43 H8          0.4400    1.6110    6.2370 ha        1 ZSV      0.237000
     44 H9         -5.7120    1.2990    0.9690 ha        1 ZSV      0.119000
     45 H7         -3.5910    4.6880    4.3690 ha        1 ZSV      0.138000
     46 H10        -5.1060    1.5730    6.2930 ha        1 ZSV      0.245000
     47 H281        2.5340    0.1880    2.9980 hc        1 ZSV      0.071500
     48 H282        1.6570    1.0830    4.3000 hc        1 ZSV      0.071500
     49 H291        3.5140   -2.4410    5.3670 hn        1 ZSV      0.191000
     50 H292        2.7710    0.9070    6.2160 hc        1 ZSV      0.072000
     51 H20         1.2410   -4.5960    6.3480 hc        1 ZSV      0.110000
     52 H301        3.4480   -2.0850    3.7310 hn        1 ZSV      0.191000
     53 H302        0.7620   -4.0560    2.1860 ha        1 ZSV      0.230000
     54 H33        -1.9050    1.4210    4.7960 hn        1 ZSV      0.237000
     55 H241        0.1010    1.0740   10.6380 h4        1 ZSV      0.147000
     56 H242       -0.0840   -2.0770    8.0340 ho        1 ZSV      0.260000
     57 H25        -2.0760   -0.1280    8.6690 ha        1 ZSV      0.194000
     58 H321       -2.4210    1.4430   11.2850 hc        1 ZSV      0.083000
     59 H322       -2.7040    2.3350    9.7350 hc        1 ZSV      0.083000
     60 H261       -5.1390   -2.2050    6.0420 ha        1 ZSV      0.003500
     61 H262       -6.1910   -0.0060    6.8700 ha        1 ZSV      0.167000
     62 H263       -4.8280   -1.8450    6.5270 ha        1 ZSV      0.003500
     63 H34         2.1220   -2.7040    4.4990 hn        1 ZSV      0.191000
     64 C19         1.0600   -5.4180    5.6000 c3        1 ZSV     -0.140000
     65 C27        -1.7740    3.4600    4.4180 c3        1 ZSV     -0.001000
     66 C31        -4.0820    0.7110   10.0960 c3        1 ZSV     -0.211000
     67 H6         -4.3670    0.0510    1.2710 ha        1 ZSV      0.119000
     68 C26        -6.7480   -0.3720    5.9860 c1        1 ZSV     -0.080000
     69 H271       -1.2860    3.9050    5.3410 h1        1 ZSV      0.104000
     70 H272       -1.4010    4.0360    3.5210 h1        1 ZSV      0.104000
     71 H191        0.1040   -5.9350    5.8750 hc        1 ZSV      0.110000
     72 H192        1.8980   -6.1570    5.6760 hc        1 ZSV      0.110000
     73 H311       -4.7870    1.3000   10.7360 hc        1 ZSV      0.080000
     74 H312       -4.0710   -0.3460   10.4620 hc        1 ZSV      0.080000
     75 C22         1.7660   -2.1600    7.4720 c2        1 ZSV      0.384000
@<TRIPOS>BOND
     1    1    2 1   
     2    1    3 1   
     3    1   38 1   
     4    2    4 1   
     5    2   39 1   
     6    3   11 1   
     7    3   40 1   
     8    5    8 1   
     9    6    9 1   
    10    6   44 1   
    11    6   67 1   
    12    7   10 1   
    13    7   13 1   
    14    8   16 1   
    15    8   43 1   
    16    9   18 1   
    17   10   18 1   
    18   10   46 1   
    19   11   14 1   
    20   11   20 1   
    21   12   15 1   
    22   12   17 1   
    23   12   75 1   
    24   13   45 1   
    25   13   65 1   
    26   14   24 1   
    27   14   41 1   
    28   15   25 1   
    29   15   42 1   
    30   15   50 1   
    31   16   17 1   
    32   16   36 1   
    33   17   35 1   
    34   18   37 1   
    35   19   26 1   
    36   19   64 1   
    37   20   28 1   
    38   20   32 1   
    39   21   31 1   
    40   21   34 1   
    41   21   66 1   
    42   22   23 1   
    43   22   35 1   
    44   22   55 1   
    45   23   27 1   
    46   23   57 1   
    47   24   25 1   
    48   24   47 1   
    49   24   48 1   
    50   25   29 1   
    51   26   53 1   
    52   27   58 1   
    53   27   59 1   
    54   27   66 1   
    55   28   54 1   
    56   28   65 1   
    57   29   49 1   
    58   29   52 1   
    59   29   63 1   
    60   30   56 1   
    61   30   75 1   
    62   33   75 1   
    63   37   68 1   
    64   51   64 1   
    65   60   62 1   
    66   61   68 1   
    67   64   71 1   
    68   64   72 1   
    69   65   69 1   
    70   65   70 1   
    71   66   73 1   
    72   66   74 1   
@<TRIPOS>SUBSTRUCTURE
     1 ZSV         1 TEMP              0 ****  ****    0 ROOT
