@<TRIPOS>MOLECULE
ZSW
   70    72     1     0     0
SMALL
bcc


@<TRIPOS>ATOM
      1 C1           0.0000     0.0000     0.0000 ca         1 ZSW      -0.090000
      2 C2           1.3840     0.0000     0.0000 ca         1 ZSW      -0.079000
      3 C3          -0.6930     0.0020     1.1930 ca         1 ZSW      -0.059000
      4 C4           2.0820     0.0000     1.1940 ca         1 ZSW      -0.106000
      5 C5           2.1750     0.7340     6.7860 ca         1 ZSW      -0.108000
      6 C6           1.3660     1.4200     7.6760 ca         1 ZSW      -0.126000
      7 C7           0.0060     0.0040     2.4010 ca         1 ZSW      -0.124600
      8 C8           0.9150    -1.2730     7.1830 ca         1 ZSW      -0.045600
      9 C9           1.4010     0.0020     2.3940 ca         1 ZSW      -0.094300
     10 C10          1.9570    -0.6030     6.5350 ca         1 ZSW      -0.177300
     11 C11          0.3280     0.7710     8.3260 ca         1 ZSW       0.105100
     12 C12          0.0970    -0.5790     8.0850 ca         1 ZSW       0.100100
     13 C14          2.9170    -3.6480     3.8380 c2         1 ZSW      -0.212200
     14 C15         -0.7300     0.0070     3.6840 c          1 ZSW       0.593700
     15 C17         -2.6800     3.5190    12.2600 c          1 ZSW       0.980600
     16 C18         -4.1940     0.6220     4.7500 c3         1 ZSW      -0.026400
     17 C20         -2.8070     0.0100     4.9580 c3         1 ZSW      -0.011300
     18 C22         -2.9530    -1.4260     5.4660 c3         1 ZSW      -0.038100
     19 C23         -1.9300    -0.4300     9.3150 c3         1 ZSW       0.158400
     20 C25         -1.2500     0.6980    10.1030 c3         1 ZSW       0.125100
     21 C26          2.1630     0.0020     3.6950 c3         1 ZSW       0.008100
     22 C27          2.8390    -1.3420     5.5630 c3         1 ZSW       0.061100
     23 C28          2.9720    -2.2280     3.3380 c3         1 ZSW       0.023000
     24 C31         -2.3140     1.5920    10.7440 c3         1 ZSW      -0.014400
     25 N32         -2.0780     0.0080     3.6880 ns         1 ZSW      -0.178900
     26 N33          2.2020    -1.3610     4.2400 nx         1 ZSW       0.016600
     27 O37         -0.1930    -3.0770     5.9610 o          1 ZSW      -0.876800
     28 O35         -3.8510     3.3290    12.0280 o          1 ZSW      -0.905300
     29 O36         -0.1190     0.0080     4.7350 o          1 ZSW      -0.615100
     30 O34          1.2670    -3.5470     7.5660 o          1 ZSW      -0.876800
     31 O38         -2.3130     4.5150    13.0820 o          1 ZSW      -0.905300
     32 O39         -0.9100    -1.2370     8.7160 os         1 ZSW      -0.272900
     33 O40         -0.4580     1.4670     9.1910 os         1 ZSW      -0.283900
     34 H1          -0.5400    -0.0010    -0.9390 ha         1 ZSW       0.110000
     35 H2           1.9230     0.0020    -0.9400 ha         1 ZSW       0.107000
     36 H3          -1.7730     0.0860     1.1920 ha         1 ZSW       0.124000
     37 H4           3.1650     0.0330     1.1860 ha         1 ZSW       0.109000
     38 H5           2.9830     1.2520     6.2830 ha         1 ZSW       0.084000
     39 H6           1.5460     2.4710     7.8660 ha         1 ZSW       0.116000
     40 H261         1.6710     0.6600     4.4010 hx         1 ZSW       0.099700
     41 H262         3.1740     0.3500     3.5210 hx         1 ZSW       0.099700
     42 H271         2.9850    -2.3580     5.9080 hx         1 ZSW       0.072200
     43 H272         3.7980    -0.8430     5.4940 hx         1 ZSW       0.072200
     44 H131         2.1470    -4.3680     2.0490 ha         1 ZSW       0.088500
     45 H132         2.4340    -5.6220     3.4140 ha         1 ZSW       0.088500
     46 H14          3.2440    -3.8820     4.8440 ha         1 ZSW       0.151000
     47 H281         2.5500    -2.1790     2.3420 hx         1 ZSW       0.058200
     48 H282         4.0030    -1.8950     3.3100 hx         1 ZSW       0.058200
     49 H32         -2.4140    -0.7390     3.1120 hn         1 ZSW       0.163500
     50 H291        -0.9680     3.2440    11.0250 hc         1 ZSW       0.011700
     51 H292        -1.0650     2.1400    12.4040 hc         1 ZSW       0.011700
     52 H181        -4.7640     0.5440     5.6670 hc         1 ZSW       0.018700
     53 H182        -4.7080     0.0900     3.9590 hc         1 ZSW       0.018700
     54 H20         -2.2600     0.5970     5.6870 h1         1 ZSW       0.068700
     55 H191        -3.1910     2.5190     4.8710 hc         1 ZSW       0.002367
     56 H192        -3.9100     2.1750     3.2920 hc         1 ZSW       0.002367
     57 H193        -4.9420     2.6340     4.6530 hc         1 ZSW       0.002367
     58 H221        -2.4750    -2.1050     4.7700 hc         1 ZSW       0.029033
     59 H222        -2.4830    -1.5150     6.4380 hc         1 ZSW       0.029033
     60 H223        -4.0040    -1.6750     5.5480 hc         1 ZSW       0.029033
     61 H231        -2.5590    -0.0050     8.5410 h1         1 ZSW       0.026200
     62 H232        -2.5270    -1.0350     9.9860 h1         1 ZSW       0.026200
     63 H25         -0.6130     0.2730    10.8690 h1         1 ZSW       0.030700
     64 H311        -2.8820     2.0900     9.9680 hc         1 ZSW       0.032200
     65 H312        -2.9790     0.9870    11.3470 hc         1 ZSW       0.032200
     66 H33          1.2690    -1.7130     4.3240 hn         1 ZSW       0.321800
     67 C13          2.4740    -4.6010     3.0550 c2         1 ZSW      -0.073000
     68 C29         -1.6340     2.6380    11.6280 c3         1 ZSW      -0.136400
     69 C19         -4.0490     2.0950     4.3630 c3         1 ZSW       0.002900
     70 C16          0.6770    -2.7040     6.9200 c          1 ZSW       0.969200
@<TRIPOS>BOND
     1     1     2 ar  
     2     1     3 ar  
     3     1    34 1   
     4     2     4 ar  
     5     2    35 1   
     6     3     7 ar  
     7     3    36 1   
     8     4     9 ar  
     9     4    37 1   
    10     5     6 ar  
    11     5    10 ar  
    12     5    38 1   
    13     6    11 ar  
    14     6    39 1   
    15     7     9 ar  
    16     7    14 1   
    17     8    10 ar  
    18     8    12 ar  
    19     8    70 1   
    20     9    21 1   
    21    10    22 1   
    22    11    12 ar  
    23    11    33 1   
    24    12    32 1   
    25    13    23 1   
    26    13    46 1   
    27    13    67 2   
    28    14    25 1   
    29    14    29 2   
    30    15    28 1   
    31    15    31 1   
    32    15    68 1   
    33    16    17 1   
    34    16    52 1   
    35    16    53 1   
    36    16    69 1   
    37    17    18 1   
    38    17    25 1   
    39    17    54 1   
    40    18    58 1   
    41    18    59 1   
    42    18    60 1   
    43    19    20 1   
    44    19    32 1   
    45    19    61 1   
    46    19    62 1   
    47    20    24 1   
    48    20    33 1   
    49    20    63 1   
    50    21    26 1   
    51    21    40 1   
    52    21    41 1   
    53    22    26 1   
    54    22    42 1   
    55    22    43 1   
    56    23    26 1   
    57    23    47 1   
    58    23    48 1   
    59    24    64 1   
    60    24    65 1   
    61    24    68 1   
    62    25    49 1   
    63    26    66 1   
    64    27    70 1   
    65    30    70 1   
    66    44    67 1   
    67    45    67 1   
    68    50    68 1   
    69    51    68 1   
    70    55    69 1   
    71    56    69 1   
    72    57    69 1   
@<TRIPOS>SUBSTRUCTURE
     1 ZSW         1 TEMP              0 ****  ****    0 ROOT
