@<TRIPOS>MOLECULE
molecule
   70    72     1     0     0
SMALL
bcc


@<TRIPOS>ATOM
      1 C1           0.0000     0.0000     0.0000 ca         1 ZSW      -0.121000
      2 C2           1.3840     0.0000     0.0000 ca         1 ZSW      -0.111000
      3 C3          -0.6930     0.0020     1.1930 ca         1 ZSW      -0.085000
      4 C4           2.0820     0.0000     1.1940 ca         1 ZSW      -0.130000
      5 C5           2.1750     0.7340     6.7860 ca         1 ZSW      -0.127000
      6 C6           1.3660     1.4200     7.6760 ca         1 ZSW      -0.147000
      7 C7           0.0060     0.0040     2.4010 ca         1 ZSW      -0.117600
      8 C8           0.9150    -1.2730     7.1830 ca         1 ZSW      -0.042600
      9 C9           1.4010     0.0020     2.3940 ca         1 ZSW      -0.099300
     10 C10          1.9570    -0.6030     6.5350 ca         1 ZSW      -0.170300
     11 C11          0.3280     0.7710     8.3260 ca         1 ZSW       0.103100
     12 C12          0.0970    -0.5790     8.0850 ca         1 ZSW       0.084100
     13 C14          2.9170    -3.6480     3.8380 c2         1 ZSW      -0.222200
     14 C15         -0.7300     0.0070     3.6840 c          1 ZSW       0.636700
     15 C17         -2.6800     3.5190    12.2600 c          1 ZSW       0.891600
     16 C18         -4.1940     0.6220     4.7500 c3         1 ZSW      -0.079400
     17 C20         -2.8070     0.0100     4.9580 c3         1 ZSW       0.065700
     18 C22         -2.9530    -1.4260     5.4660 c3         1 ZSW      -0.118100
     19 C23         -1.9300    -0.4300     9.3150 c3         1 ZSW       0.095400
     20 C25         -1.2500     0.6980    10.1030 c3         1 ZSW       0.097100
     21 C26          2.1630     0.0020     3.6950 c3         1 ZSW       0.149100
     22 C27          2.8390    -1.3420     5.5630 c3         1 ZSW       0.179100
     23 C28          2.9720    -2.2280     3.3380 c3         1 ZSW       0.140000
     24 C31         -2.3140     1.5920    10.7440 c3         1 ZSW      -0.057400
     25 N32         -2.0780     0.0080     3.6880 ns         1 ZSW      -0.501900
     26 N33          2.2020    -1.3610     4.2400 nx         1 ZSW      -0.635400
     27 O37         -0.1930    -3.0770     5.9610 o          1 ZSW      -0.829800
     28 O35         -3.8510     3.3290    12.0280 o          1 ZSW      -0.856300
     29 O36         -0.1190     0.0080     4.7350 o          1 ZSW      -0.575100
     30 O34          1.2670    -3.5470     7.5660 o          1 ZSW      -0.829800
     31 O38         -2.3130     4.5150    13.0820 o          1 ZSW      -0.856300
     32 O39         -0.9100    -1.2370     8.7160 os         1 ZSW      -0.297900
     33 O40         -0.4580     1.4670     9.1910 os         1 ZSW      -0.309900
     34 H1          -0.5400    -0.0010    -0.9390 ha         1 ZSW       0.140000
     35 H2           1.9230     0.0010    -0.9400 ha         1 ZSW       0.137000
     36 H3          -1.7730    -0.0760     1.1920 ha         1 ZSW       0.153000
     37 H4           3.1650     0.0320     1.1860 ha         1 ZSW       0.133000
     38 H5           2.9830     1.2520     6.2830 ha         1 ZSW       0.103000
     39 H6           1.5460     2.4710     7.8660 ha         1 ZSW       0.142000
     40 H261         1.6710     0.6600     4.4010 hx         1 ZSW       0.115700
     41 H262         3.1740     0.3500     3.5210 hx         1 ZSW       0.115700
     42 H271         2.9850    -2.3580     5.9080 hx         1 ZSW       0.093200
     43 H272         3.7980    -0.8430     5.4940 hx         1 ZSW       0.093200
     44 H131         2.4340    -5.6220     3.4140 ha         1 ZSW       0.123500
     45 H132         2.1480    -4.3680     2.0490 ha         1 ZSW       0.123500
     46 H14          3.2440    -3.8820     4.8440 ha         1 ZSW       0.169000
     47 H281         4.0030    -1.8950     3.3100 hx         1 ZSW       0.078700
     48 H282         2.5500    -2.1790     2.3420 hx         1 ZSW       0.078700
     49 H32         -2.4140    -0.7390     3.1120 hn         1 ZSW       0.280500
     50 H291        -0.9680     3.2440    11.0250 hc         1 ZSW       0.036700
     51 H292        -1.0650     2.1400    12.4040 hc         1 ZSW       0.036700
     52 H181        -4.7080     0.0900     3.9590 hc         1 ZSW       0.045700
     53 H182        -4.7640     0.5440     5.6670 hc         1 ZSW       0.045700
     54 H20         -2.2600     0.5970     5.6870 h1         1 ZSW       0.093700
     55 H191        -4.9680     2.6200     4.5910 hc         1 ZSW       0.034033
     56 H192        -3.2320     2.5360     4.9220 hc         1 ZSW       0.034033
     57 H193        -3.8430     2.1710     3.3020 hc         1 ZSW       0.034033
     58 H221        -4.0040    -1.6750     5.5480 hc         1 ZSW       0.055700
     59 H222        -2.4840    -1.5150     6.4380 hc         1 ZSW       0.055700
     60 H223        -2.4750    -2.1050     4.7700 hc         1 ZSW       0.055700
     61 H231        -2.5590    -0.0050     8.5410 h1         1 ZSW       0.065200
     62 H232        -2.5270    -1.0350     9.9860 h1         1 ZSW       0.065200
     63 H25         -0.6130     0.2730    10.8690 h1         1 ZSW       0.061700
     64 H311        -2.8820     2.0900     9.9680 hc         1 ZSW       0.060700
     65 H312        -2.9790     0.9870    11.3470 hc         1 ZSW       0.060700
     66 H33          1.2690    -1.7130     4.3240 hn         1 ZSW       0.498800
     67 C13          2.4740    -4.6010     3.0550 c2         1 ZSW      -0.149000
     68 C29         -1.6340     2.6380    11.6280 c3         1 ZSW      -0.183400
     69 C19         -4.0490     2.0950     4.3630 c3         1 ZSW      -0.089100
     70 C16          0.6770    -2.7040     6.9200 c          1 ZSW       0.878200
@<TRIPOS>BOND
     1     1     2 ar
     2     1     3 ar
     3     2     4 ar
     4     3     7 ar
     5     4     9 ar
     6     5     6 ar
     7     5    10 ar
     8     6    11 ar
     9     7     9 ar
    10     7    14 1
    11     8    10 ar
    12     8    12 ar
    13     8    70 1
    14     9    21 1
    15    10    22 1
    16    11    12 ar
    17    11    33 1
    18    12    32 1
    19    67    13 2
    20    13    23 1
    21    14    25 1
    22    14    29 2
    23    70    30 1
    24    70    27 1
    25    15    68 1
    26    15    28 1
    27    15    31 1
    28    16    17 1
    29    16    69 1
    30    17    18 1
    31    17    25 1
    32    19    20 1
    33    19    32 1
    34    20    24 1
    35    20    33 1
    36    21    26 1
    37    22    26 1
    38    23    26 1
    39    68    24 1
    40     1    34 1
    41     2    35 1
    42     3    36 1
    43     4    37 1
    44     5    38 1
    45     6    39 1
    46    21    40 1
    47    21    41 1
    48    22    42 1
    49    22    43 1
    50    67    44 1
    51    67    45 1
    52    13    46 1
    53    23    47 1
    54    23    48 1
    55    25    49 1
    56    68    50 1
    57    68    51 1
    58    16    52 1
    59    16    53 1
    60    17    54 1
    61    69    55 1
    62    69    56 1
    63    69    57 1
    64    18    58 1
    65    18    59 1
    66    18    60 1
    67    19    61 1
    68    19    62 1
    69    20    63 1
    70    24    64 1
    71    24    65 1
    72    26    66 1
@<TRIPOS>SUBSTRUCTURE
     1 ZSW         1 TEMP              0 ****  ****    0 ROOT
