@<TRIPOS>MOLECULE
molecule
   60    63     1     0     0
SMALL
bcc


@<TRIPOS>ATOM
      1 C1           0.0000     0.0000     0.0000 ca         1 ZT0      -0.109000
      2 C2           1.3840     0.0000     0.0000 ca         1 ZT0      -0.111000
      3 C3          -0.6920     0.0020     1.1930 ca         1 ZT0      -0.099000
      4 C4           2.0820     0.0000     1.1950 ca         1 ZT0      -0.122000
      5 C5           3.9080    -3.5290     6.1370 ca         1 ZT0      -0.122000
      6 C6          -4.9690    -1.1920     4.5630 ca         1 ZT0      -0.073500
      7 C7          -4.9680     1.2050     4.5620 ca         1 ZT0      -0.073500
      8 C8           3.8720    -4.7990     6.6880 ca         1 ZT0      -0.139000
      9 C9          -6.3280    -1.1940     4.3150 ca         1 ZT0      -0.197000
     10 C10         -6.3260     1.2080     4.3130 ca         1 ZT0      -0.197000
     11 C11          0.0060     0.0020     2.4020 ca         1 ZT0      -0.116600
     12 C12          1.6090    -3.1920     6.7490 ca         1 ZT0      -0.043600
     13 C13         -4.2900     0.0060     4.6870 ca         1 ZT0      -0.157300
     14 C14          1.4010     0.0010     2.3950 ca         1 ZT0      -0.109300
     15 C15          2.7900    -2.7260     6.1630 ca         1 ZT0      -0.166300
     16 C16          2.7110    -5.2770     7.2710 ca         1 ZT0       0.067100
     17 C17          1.5720    -4.4760     7.3060 ca         1 ZT0       0.076100
     18 C18         -7.0110     0.0070     4.1880 ca         1 ZT0       0.146100
     19 C19         -0.7300     0.0030     3.6840 c          1 ZT0       0.657700
     20 C21          1.2240    -6.2360     8.6330 c3         1 ZT0       0.326200
     21 C22          2.9730    -2.2300     3.3370 c3         1 ZT0       0.086100
     22 C25          2.1630     0.0000     3.6940 c3         1 ZT0       0.157100
     23 C26          2.8390    -1.3440     5.5630 c3         1 ZT0       0.177100
     24 N27         -2.0780     0.0040     3.6880 ns         1 ZT0      -0.551900
     25 N28          2.2020    -1.3630     4.2390 nx         1 ZT0      -0.638400
     26 O29          0.2580    -1.4240     7.7610 o          1 ZT0      -0.806800
     27 O30         -0.1190     0.0030     4.7350 o          1 ZT0      -0.597100
     28 O31         -0.4430    -2.4530     5.9220 o          1 ZT0      -0.806800
     29 O32          2.4230    -6.4690     7.8710 os         1 ZT0      -0.331900
     30 O33          0.5720    -5.1640     7.9250 os         1 ZT0      -0.290900
     31 O34         -8.3480     0.0080     3.9440 os         1 ZT0      -0.328900
     32 H1          -0.5410    -0.0000    -0.9390 ha         1 ZT0       0.145000
     33 H2           1.9230    -0.0010    -0.9400 ha         1 ZT0       0.143000
     34 H3          -1.7760     0.0020     1.1920 ha         1 ZT0       0.145000
     35 H4           3.1650    -0.0000     1.1880 ha         1 ZT0       0.134000
     36 H5           4.8220    -3.1650     5.6820 ha         1 ZT0       0.121000
     37 H8           4.7580    -5.4230     6.6610 ha         1 ZT0       0.140000
     38 H9          -6.8610    -2.1330     4.2180 ha         1 ZT0       0.140000
     39 H7          -4.4330     2.1420     4.6590 ha         1 ZT0       0.142000
     40 H10         -6.8570     2.1470     4.2150 ha         1 ZT0       0.140000
     41 H251         3.1740     0.3480     3.5200 hx         1 ZT0       0.111700
     42 H252         1.6720     0.6580     4.4020 hx         1 ZT0       0.111700
     43 H261         3.8710    -1.0300     5.4630 hx         1 ZT0       0.108200
     44 H262         2.3110    -0.6520     6.2080 hx         1 ZT0       0.108200
     45 H27         -2.5810     0.0290     2.8230 hn         1 ZT0       0.310500
     46 H211         0.6000    -7.1220     8.6380 h2         1 ZT0       0.071200
     47 H212         1.4700    -5.9290     9.6420 h2         1 ZT0       0.071200
     48 H221         2.4960    -2.2540     2.3650 hx         1 ZT0       0.085700
     49 H222         3.9790    -1.8420     3.2360 hx         1 ZT0       0.085700
     50 H223         3.0110    -3.2320     3.7450 hx         1 ZT0       0.085700
     51 H231       -10.0410     1.1410     3.6300 h1         1 ZT0       0.041367
     52 H232        -8.5370     1.8350     3.0090 h1         1 ZT0       0.041367
     53 H233        -8.8590     1.8350     4.7490 h1         1 ZT0       0.041367
     54 H28          1.2690    -1.7150     4.3230 hn         1 ZT0       0.497800
     55 C24         -2.8070     0.0050     4.9580 c3         1 ZT0       0.155300
     56 H6          -4.4360    -2.1300     4.6620 ha         1 ZT0       0.142000
     57 C23         -8.9850     1.2820     3.8260 c3         1 ZT0       0.128700
     58 H241        -2.5430     0.8900     5.5250 h1         1 ZT0       0.089700
     59 H242        -2.5440    -0.8790     5.5260 h1         1 ZT0       0.089700
     60 C20          0.4100    -2.3360     6.7800 c          1 ZT0       0.867200
@<TRIPOS>BOND
     1     1     2 ar
     2     1     3 ar
     3     2     4 ar
     4     3    11 ar
     5     4    14 ar
     6     5     8 ar
     7     5    15 ar
     8     6     9 ar
     9     6    13 ar
    10     7    10 ar
    11     7    13 ar
    12     8    16 ar
    13     9    18 ar
    14    10    18 ar
    15    11    14 ar
    16    11    19 1
    17    12    15 ar
    18    12    17 ar
    19    12    60 1
    20    13    55 1
    21    14    22 1
    22    15    23 1
    23    16    17 ar
    24    16    29 1
    25    17    30 1
    26    18    31 1
    27    19    24 1
    28    19    27 2
    29    60    26 1
    30    60    28 1
    31    20    29 1
    32    20    30 1
    33    21    25 1
    34    57    31 1
    35    55    24 1
    36    22    25 1
    37    23    25 1
    38     1    32 1
    39     2    33 1
    40     3    34 1
    41     4    35 1
    42     5    36 1
    43     8    37 1
    44     6    56 1
    45     9    38 1
    46     7    39 1
    47    10    40 1
    48    55    58 1
    49    55    59 1
    50    22    41 1
    51    22    42 1
    52    23    43 1
    53    23    44 1
    54    24    45 1
    55    20    46 1
    56    20    47 1
    57    21    48 1
    58    21    49 1
    59    21    50 1
    60    57    51 1
    61    57    52 1
    62    57    53 1
    63    25    54 1
@<TRIPOS>SUBSTRUCTURE
     1 ZT0         1 TEMP              0 ****  ****    0 ROOT
