@<TRIPOS>MOLECULE
molecule
   34    37     1     0     0
SMALL
bcc


@<TRIPOS>ATOM
      1 C1           0.0000     0.0000     0.0000 ca         1 ZT2      -0.130000
      2 C2           1.3840     0.0000     0.0000 ca         1 ZT2      -0.145000
      3 C3          -0.6930    -0.0000     1.1920 ca         1 ZT2      -0.111000
      4 C4          -2.7770    -1.3130     2.3170 ca         1 ZT2      -0.114000
      5 C5           2.0780     0.0000     1.1960 ca         1 ZT2      -0.120000
      6 C6          -3.7690    -1.5300     1.3820 ca         1 ZT2      -0.159000
      7 C7           0.0030     0.0000     2.4050 ca         1 ZT2      -0.022800
      8 C8          -2.8640    -0.2300     3.1940 ca         1 ZT2      -0.098800
      9 C9          -3.9750     0.6450     3.1190 ca         1 ZT2      -0.022600
     10 C10          1.3950    -0.0010     2.3960 ca         1 ZT2      -0.104300
     11 C11         -4.8620    -0.6790     1.3010 ca         1 ZT2       0.039100
     12 C12         -4.9700     0.4110     2.1680 ca         1 ZT2       0.058100
     13 C13         -0.4910     0.0010     3.8010 ce         1 ZT2      -0.230400
     14 C14          0.6630     0.0010     4.7030 c          1 ZT2       0.597300
     15 C15         -1.8110     0.0010     4.1870 cf         1 ZT2       0.087800
     16 C16         -4.0800     1.7910     4.0370 c          1 ZT2       0.878200
     17 C17          1.8900    -0.0010     3.8210 c3         1 ZT2      -0.136100
     18 C18         -6.9200     0.1630     1.1170 c3         1 ZT2       0.326200
     19 O19         -4.7050     1.6490     5.2230 o          1 ZT2      -0.813800
     20 O20          0.6380     0.0030     5.9160 o          1 ZT2      -0.533100
     21 O21         -3.6040     2.8650     3.7250 o          1 ZT2      -0.813800
     22 O22         -5.9490    -0.6860     0.4770 os         1 ZT2      -0.345900
     23 O23         -6.1200     1.0810     1.8850 os         1 ZT2      -0.295900
     24 H1          -0.5400     0.0000    -0.9390 ha         1 ZT2       0.125000
     25 H2           1.9250     0.0000    -0.9390 ha         1 ZT2       0.116000
     26 H3          -1.7760    -0.0000     1.1880 ha         1 ZT2       0.167000
     27 H5           3.1610     0.0000     1.1910 ha         1 ZT2       0.115000
     28 H15         -2.0700     0.1300     5.2300 ha         1 ZT2       0.178000
     29 H171         2.4810     0.8880     4.0080 hc         1 ZT2       0.070200
     30 H172         2.4780    -0.8910     4.0080 hc         1 ZT2       0.070200
     31 H181        -7.5610    -0.4180     1.7690 h2         1 ZT2       0.055700
     32 H182        -7.5040     0.6970     0.3760 h2         1 ZT2       0.055700
     33 H4          -1.9290    -1.9850     2.3710 ha         1 ZT2       0.134000
     34 H6          -3.6940    -2.3730     0.7060 ha         1 ZT2       0.125000
@<TRIPOS>BOND
     1     1     2 ar
     2     1     3 ar
     3     2     5 ar
     4     3     7 ar
     5     4     6 ar
     6     4     8 ar
     7     5    10 ar
     8     6    11 ar
     9     7    10 ar
    10     7    13 1
    11     8     9 ar
    12     8    15 1
    13     9    12 ar
    14     9    16 1
    15    10    17 1
    16    11    12 ar
    17    11    22 1
    18    12    23 1
    19    13    14 1
    20    13    15 2
    21    14    17 1
    22    14    20 2
    23    16    19 1
    24    16    21 1
    25    18    22 1
    26    18    23 1
    27     1    24 1
    28     2    25 1
    29     3    26 1
    30     5    27 1
    31     4    33 1
    32     6    34 1
    33    15    28 1
    34    17    29 1
    35    17    30 1
    36    18    31 1
    37    18    32 1
@<TRIPOS>SUBSTRUCTURE
     1 ZT2         1 TEMP              0 ****  ****    0 ROOT
