@<TRIPOS>MOLECULE
ZT2
   34    37     1     0     0
SMALL
bcc


@<TRIPOS>ATOM
      1 C1          0.4880   -0.0230   -0.1340 ca        1 ZT2     -0.132000
      2 C2          1.8670   -0.0310    0.0460 ca        1 ZT2     -0.149000
      3 C3         -0.3830   -0.0100    0.9640 ca        1 ZT2     -0.114000
      4 C4         -2.9720   -1.3060    2.1440 ca        1 ZT2     -0.130000
      5 C5          2.4140   -0.0090    1.3360 ca        1 ZT2     -0.124000
      6 C6         -4.0850   -1.6300    1.3550 ca        1 ZT2     -0.155000
      7 C7          0.1440   -0.0140    2.2480 ca        1 ZT2     -0.014800
      8 C8         -2.9710   -0.2170    3.0260 ca        1 ZT2     -0.089800
      9 C9         -4.1070    0.6220    3.1790 ca        1 ZT2     -0.053600
     10 C10         1.5600    0.0060    2.4220 ca        1 ZT2     -0.099300
     11 C11        -5.1840   -0.8050    1.4920 ca        1 ZT2      0.047100
     12 C12        -5.1930    0.2970    2.3850 ca        1 ZT2      0.059100
     13 C13        -0.5200    0.0230    3.5510 ce        1 ZT2     -0.211400
     14 C14         0.5560    0.1010    4.5790 c         1 ZT2      0.579300
     15 C15        -1.8240    0.0170    3.8890 cf        1 ZT2      0.058800
     16 C16        -4.1090    1.7850    4.1740 c         1 ZT2      0.921200
     17 C17         1.9080    0.0770    3.8710 c3        1 ZT2     -0.142100
     18 C18        -7.2190    0.1970    1.3460 c3        1 ZT2      0.317200
     19 O19        -3.9890    1.4810    5.3920 o         1 ZT2     -0.803800
     20 O20         0.4240    0.1400    5.8020 o         1 ZT2     -0.535100
     21 O21        -4.2070    2.9490    3.7120 o         1 ZT2     -0.803800
     22 O22        -6.4120   -0.8910    0.8400 os        1 ZT2     -0.355900
     23 O23        -6.4420    0.9220    2.3150 os        1 ZT2     -0.305900
     24 H1          0.0680   -0.0220   -1.1500 ha        1 ZT2      0.123000
     25 H2          2.5360   -0.0450   -0.8260 ha        1 ZT2      0.117000
     26 H3         -1.4720    0.0210    0.8040 ha        1 ZT2      0.158000
     27 H5          3.5030    0.0040    1.4760 ha        1 ZT2      0.121000
     28 H15        -2.1040    0.2120    4.9540 ha        1 ZT2      0.201000
     29 H171        2.4870    1.0040    4.1130 hc        1 ZT2      0.073200
     30 H172        2.5030   -0.8080    4.2050 hc        1 ZT2      0.073200
     31 H181       -7.4670    0.8790    0.4950 h2        1 ZT2      0.053200
     32 H182       -8.1180   -0.2340    1.8520 h2        1 ZT2      0.053200
     33 H4         -2.0730   -1.9380    2.0740 ha        1 ZT2      0.129000
     34 H6         -4.0800   -2.4870    0.6740 ha        1 ZT2      0.134000
@<TRIPOS>BOND
     1    1    2 ar  
     2    1    3 ar  
     3    1   24 1   
     4    2    5 ar  
     5    2   25 1   
     6    3    7 ar  
     7    3   26 1   
     8    4    6 ar  
     9    4    8 ar  
    10    4   33 1   
    11    5   10 ar  
    12    5   27 1   
    13    6   11 ar  
    14    6   34 1   
    15    7   10 ar  
    16    7   13 1   
    17    8    9 ar  
    18    8   15 1   
    19    9   12 ar  
    20    9   16 1   
    21   10   17 1   
    22   11   12 ar  
    23   11   22 1   
    24   12   23 1   
    25   13   14 1   
    26   13   15 2   
    27   14   17 1   
    28   14   20 2   
    29   15   28 1   
    30   16   19 1   
    31   16   21 1   
    32   17   29 1   
    33   17   30 1   
    34   18   22 1   
    35   18   23 1   
    36   18   31 1   
    37   18   32 1   
@<TRIPOS>SUBSTRUCTURE
     1 ZT2         1 TEMP              0 ****  ****    0 ROOT
