@<TRIPOS>MOLECULE
molecule
   36    39     1     0     0
SMALL
bcc


@<TRIPOS>ATOM
      1 C1           0.0000     0.0000     0.0000 ca         1 ZT4      -0.134000
      2 C2           1.3840     0.0000     0.0000 ca         1 ZT4      -0.145000
      3 C3          -0.6930     0.0000     1.1910 ca         1 ZT4      -0.111000
      4 C4          -2.7350    -1.3340     2.2840 ca         1 ZT4      -0.119000
      5 C5           2.0790     0.0000     1.1950 ca         1 ZT4      -0.126000
      6 C6          -3.7160    -1.5720     1.3450 ca         1 ZT4      -0.157000
      7 C7           0.0050     0.0020     2.4090 ca         1 ZT4      -0.025800
      8 C8          -2.8450    -0.2510     3.1560 ca         1 ZT4      -0.074800
      9 C9          -3.9680     0.6030     3.0700 ca         1 ZT4      -0.030600
     10 C10          1.3990     0.0010     2.3990 ca         1 ZT4      -0.097300
     11 C11         -4.8240    -0.7410     1.2530 ca         1 ZT4       0.030100
     12 C12         -4.9560     0.3480     2.1120 ca         1 ZT4       0.058100
     13 C13         -0.5050     0.0030     3.7920 ce         1 ZT4      -0.124400
     14 C14         -1.7990     0.0020     4.1570 cf         1 ZT4       0.010800
     15 C15         -4.0990     1.7490     3.9810 c          1 ZT4       0.882200
     16 C16          1.9160    -0.0000     3.8170 c3         1 ZT4      -0.050100
     17 C17         -6.8970     0.0640     1.0500 c3         1 ZT4       0.327200
     18 C18          0.6800     0.0030     4.7270 c3         1 ZT4       0.193300
     19 O19         -3.6390     2.8290     3.6680 o          1 ZT4      -0.821300
     20 O20         -4.7280     1.6010     5.1650 o          1 ZT4      -0.821300
     21 O21         -5.9070    -0.7710     0.4210 os         1 ZT4      -0.348900
     22 O22         -6.1160     0.9980     1.8200 os         1 ZT4      -0.298900
     23 O23          0.6670    -1.1690     5.5440 oh         1 ZT4      -0.600800
     24 H1          -0.5400     0.0000    -0.9390 ha         1 ZT4       0.123000
     25 H2           1.9240    -0.0000    -0.9390 ha         1 ZT4       0.114000
     26 H3          -1.7760     0.0000     1.1880 ha         1 ZT4       0.169000
     27 H5           3.1620    -0.0000     1.1880 ha         1 ZT4       0.112000
     28 H14         -2.0680     0.1400     5.1980 ha         1 ZT4       0.162000
     29 H161         2.5100     0.8880     3.9950 hc         1 ZT4       0.051200
     30 H162         2.5060    -0.8910     3.9960 hc         1 ZT4       0.051200
     31 H171        -7.5330    -0.5250     1.6990 h2         1 ZT4       0.053700
     32 H172        -7.4830     0.5850     0.3020 h2         1 ZT4       0.053700
     33 H23          0.9180    -0.9420     6.4240 ho         1 ZT4       0.391000
     34 H18          0.6710     0.8960     5.3410 h1         1 ZT4       0.045700
     35 H4          -1.8760    -1.9910     2.3460 ha         1 ZT4       0.137000
     36 H6          -3.6220    -2.4160     0.6720 ha         1 ZT4       0.122000
@<TRIPOS>BOND
     1     1     2 ar
     2     1     3 ar
     3     2     5 ar
     4     3     7 ar
     5     4     6 ar
     6     4     8 ar
     7     5    10 ar
     8     6    11 ar
     9     7    10 ar
    10     7    13 1
    11     8     9 ar
    12     8    14 1
    13     9    12 ar
    14     9    15 1
    15    10    16 1
    16    11    12 ar
    17    11    21 1
    18    12    22 1
    19    13    14 2
    20    13    18 1
    21    15    19 1
    22    15    20 1
    23    16    18 1
    24    17    21 1
    25    17    22 1
    26    18    23 1
    27     1    24 1
    28     2    25 1
    29     3    26 1
    30     5    27 1
    31     4    35 1
    32     6    36 1
    33    14    28 1
    34    16    29 1
    35    16    30 1
    36    17    31 1
    37    17    32 1
    38    23    33 1
    39    18    34 1
@<TRIPOS>SUBSTRUCTURE
     1 ZT4         1 TEMP              0 ****  ****    0 ROOT
