@<TRIPOS>MOLECULE
ZT4
   36    39     1     0     0
SMALL
bcc


@<TRIPOS>ATOM
      1 C1          0.6150   -0.0700   -0.1660 ca        1 ZT4     -0.138000
      2 C2          1.9890   -0.1130    0.0430 ca        1 ZT4     -0.146000
      3 C3         -0.2770   -0.0210    0.9140 ca        1 ZT4     -0.113000
      4 C4         -2.9120   -1.2880    2.0300 ca        1 ZT4     -0.138000
      5 C5          2.5090   -0.0890    1.3440 ca        1 ZT4     -0.131000
      6 C6         -4.0360   -1.6070    1.2520 ca        1 ZT4     -0.152000
      7 C7          0.2240   -0.0250    2.2090 ca        1 ZT4     -0.018800
      8 C8         -2.9250   -0.2520    2.9710 ca        1 ZT4     -0.063800
      9 C9         -4.0900    0.5290    3.2080 ca        1 ZT4     -0.061600
     10 C10         1.6330   -0.0370    2.4140 ca        1 ZT4     -0.089300
     11 C11        -5.1600   -0.8370    1.4680 ca        1 ZT4      0.041100
     12 C12        -5.1860    0.2070    2.4280 ca        1 ZT4      0.061100
     13 C13        -0.4680    0.0410    3.4920 ce        1 ZT4     -0.144400
     14 C14        -1.7680   -0.0060    3.8170 cf        1 ZT4     -0.037200
     15 C15        -4.1090    1.6220    4.2760 c         1 ZT4      0.923200
     16 C16         1.9640    0.0430    3.8660 c3        1 ZT4     -0.036100
     17 C17        -7.2370    0.0880    1.4400 c3        1 ZT4      0.317200
     18 C18         0.5980    0.2200    4.5690 c3        1 ZT4      0.182300
     19 O19        -4.3030    2.8070    3.9050 o         1 ZT4     -0.811300
     20 O20        -3.9040    1.2560    5.4690 o         1 ZT4     -0.811300
     21 O21        -6.4040   -0.9330    0.8460 os        1 ZT4     -0.356900
     22 O22        -6.4610    0.7810    2.4320 os        1 ZT4     -0.307900
     23 O23         0.5280   -0.7490    5.6030 oh        1 ZT4     -0.613800
     24 H1          0.2160   -0.0700   -1.1900 ha        1 ZT4      0.121000
     25 H2          2.6750   -0.1570   -0.8140 ha        1 ZT4      0.116000
     26 H3         -1.3620    0.0380    0.7330 ha        1 ZT4      0.156000
     27 H5          3.5950   -0.1060    1.5080 ha        1 ZT4      0.120000
     28 H14        -2.0610    0.1850    4.8780 ha        1 ZT4      0.182000
     29 H161        2.6350    0.9090    4.0860 hc        1 ZT4      0.058200
     30 H162        2.4640   -0.8930    4.2230 hc        1 ZT4      0.058200
     31 H171       -8.1040   -0.4090    1.9420 h2        1 ZT4      0.051700
     32 H172       -7.5360    0.8110    0.6420 h2        1 ZT4      0.051700
     33 H23        -0.3970   -0.8000    5.8790 ho        1 ZT4      0.415000
     34 H18         0.5090    1.2440    5.0270 h1        1 ZT4      0.052700
     35 H4         -1.9950   -1.8830    1.9020 ha        1 ZT4      0.130000
     36 H6         -4.0180   -2.4220    0.5200 ha        1 ZT4      0.133000
@<TRIPOS>BOND
     1    1    2 ar  
     2    1    3 ar  
     3    1   24 1   
     4    2    5 ar  
     5    2   25 1   
     6    3    7 ar  
     7    3   26 1   
     8    4    6 ar  
     9    4    8 ar  
    10    4   35 1   
    11    5   10 ar  
    12    5   27 1   
    13    6   11 ar  
    14    6   36 1   
    15    7   10 ar  
    16    7   13 1   
    17    8    9 ar  
    18    8   14 1   
    19    9   12 ar  
    20    9   15 1   
    21   10   16 1   
    22   11   12 ar  
    23   11   21 1   
    24   12   22 1   
    25   13   14 2   
    26   13   18 1   
    27   14   28 1   
    28   15   19 1   
    29   15   20 1   
    30   16   18 1   
    31   16   29 1   
    32   16   30 1   
    33   17   21 1   
    34   17   22 1   
    35   17   31 1   
    36   17   32 1   
    37   18   23 1   
    38   18   34 1   
    39   23   33 1   
@<TRIPOS>SUBSTRUCTURE
     1 ZT4         1 TEMP              0 ****  ****    0 ROOT
