@<TRIPOS>MOLECULE
ZTD
   53    55     1     0     0
SMALL
bcc


@<TRIPOS>ATOM
      1 CAA         0.2820   -0.6080   -0.5000 c3        1 ZTD     -0.139400
      2 CAW         1.6890   -0.9890   -0.2890 cc        1 ZTD      0.325600
      3 CAK         2.5750   -0.3870    0.7140 cc        1 ZTD     -0.321600
      4 NAQ         2.3880   -1.9200   -0.9750 nd        1 ZTD     -0.330300
      5 OAT         3.6190   -1.9690   -0.5180 os        1 ZTD     -0.103100
      6 CAZ         3.7800   -1.0320    0.5360 cd        1 ZTD      0.218000
      7 CAM         5.1140   -0.9300    1.1330 c3        1 ZTD     -0.164700
      8 CAU         5.4660   -2.1430    1.9700 c         1 ZTD      0.678100
      9 OAB         4.8050   -3.2030    1.9480 o         1 ZTD     -0.630100
     10 N           6.5440   -2.0640    2.8590 n         1 ZTD     -0.473800
     11 CD2         7.4800   -0.9490    2.8470 c3        1 ZTD      0.036000
     12 CG          8.8790   -1.4900    3.2410 c3        1 ZTD      0.138100
     13 OD1         9.7370   -1.4720    2.1190 oh        1 ZTD     -0.584800
     14 CB          8.6690   -2.9610    3.6290 c3        1 ZTD     -0.097400
     15 CA          7.1860   -3.2790    3.3360 c3        1 ZTD      0.042700
     16 C           6.5070   -3.8240    4.6060 c         1 ZTD      0.534100
     17 O           6.9870   -3.9040    5.7250 o         1 ZTD     -0.414100
     18 NAR         5.1000   -4.3260    4.4120 n4        1 ZTD     -0.676800
     19 CAL         4.6930   -5.4310    5.3390 c3        1 ZTD      0.166100
     20 CAX         5.1430   -6.7660    4.8480 ca        1 ZTD     -0.154300
     21 CAE         4.5570   -7.3190    3.7010 ca        1 ZTD     -0.120500
     22 CAG         4.9440   -8.5820    3.2630 ca        1 ZTD     -0.067000
     23 CAF         6.1110   -7.4820    5.5580 ca        1 ZTD     -0.120500
     24 CAH         6.4940   -8.7520    5.1250 ca        1 ZTD     -0.067000
     25 CAY         5.9150   -9.3000    3.9760 ca        1 ZTD     -0.085600
     26 CBA         6.2980  -10.6380    3.4840 c         1 ZTD      0.631700
     27 CAI         7.6140  -12.5870    3.8380 c3        1 ZTD      0.125700
     28 OAD         5.8810  -11.2030    2.4710 o         1 ZTD     -0.512000
     29 OAS         7.2180  -11.2780    4.2650 os        1 ZTD     -0.434900
     30 HAA1        0.2380    0.3760   -1.0340 hc        1 ZTD      0.067033
     31 HAA2       -0.2680   -1.3660   -1.1120 hc        1 ZTD      0.067033
     32 HAA3       -0.2310   -0.5020    0.4880 hc        1 ZTD      0.067033
     33 HAK         2.3030    0.3990    1.4110 ha        1 ZTD      0.179000
     34 HAM1        5.8850   -0.8510    0.3110 hc        1 ZTD      0.107200
     35 HAM2        5.1650    0.0040    1.7590 hc        1 ZTD      0.107200
     36 HD21        7.5350   -0.4740    1.8280 h1        1 ZTD      0.077700
     37 HD22        7.1280   -0.1830    3.5910 h1        1 ZTD      0.077700
     38 HA          7.1110   -4.1000    2.5570 h1        1 ZTD      0.111700
     39 HG          9.3050   -0.8970    4.0920 h1        1 ZTD      0.076700
     40 HD1        10.1900   -0.6190    2.1080 ho        1 ZTD      0.426000
     41 HB1C        9.3250   -3.6200    3.0020 hc        1 ZTD      0.104200
     42 HB2C        8.9260   -3.1210    4.7050 hc        1 ZTD      0.104200
     43 HAR         4.4670   -3.5260    4.5320 hn        1 ZTD      0.476800
     44 HAL1        3.5650   -5.4090    5.4030 hx        1 ZTD      0.115200
     45 HAL2        5.1190   -5.2100    6.3610 hx        1 ZTD      0.115200
     46 HAF         6.5660   -7.0560    6.4660 ha        1 ZTD      0.149000
     47 HAE         3.7770   -6.7700    3.1500 ha        1 ZTD      0.149000
     48 HAH         7.2510   -9.3290    5.6860 ha        1 ZTD      0.180500
     49 HAG         4.4900   -9.0320    2.3620 ha        1 ZTD      0.180500
     50 HAI1        8.3470  -12.9020    4.6210 h1        1 ZTD      0.062033
     51 HAI2        8.0860  -12.5290    2.8280 h1        1 ZTD      0.062033
     52 HAI3        6.7240  -13.2610    3.8110 h1        1 ZTD      0.062033
     53 HAR2        4.9990   -4.6470    3.4300 hn        1 ZTD      0.476800
@<TRIPOS>BOND
     1    1    2 1
     2    1   30 1
     3    1   31 1
     4    1   32 1
     5    2    3 1
     6    2    4 2
     7    3    6 2
     8    3   33 1
     9    4    5 1
    10    5    6 1
    11    6    7 1
    12    7    8 1
    13    7   34 1
    14    7   35 1
    15    8    9 2
    16    8   10 1
    17   10   11 1
    18   10   15 1
    19   11   12 1
    20   11   36 1
    21   11   37 1
    22   12   13 1
    23   12   14 1
    24   12   39 1
    25   13   40 1
    26   14   15 1
    27   14   41 1
    28   14   42 1
    29   15   16 1
    30   15   38 1
    31   16   17 2
    32   16   18 1
    33   18   19 1
    34   18   43 1
    35   18   53 1
    36   19   20 1
    37   19   44 1
    38   19   45 1
    39   20   21 ar
    40   20   23 ar
    41   21   22 ar
    42   21   47 1
    43   22   25 ar
    44   22   49 1
    45   23   24 ar
    46   23   46 1
    47   24   25 ar
    48   24   48 1
    49   25   26 1
    50   26   28 2
    51   26   29 1
    52   27   29 1
    53   27   50 1
    54   27   51 1
    55   27   52 1
@<TRIPOS>SUBSTRUCTURE
     1 ZTD         1 TEMP              0 ****  ****    0 ROOT
