@<TRIPOS>MOLECULE
molecule
   13    13     1     0     0
SMALL
bcc


@<TRIPOS>ATOM
      1 C            0.0000     0.0000     0.0000 ca         1 ZTN      -0.106000
      2 O            3.4340     0.0000     1.2030 oh         1 ZTN      -0.504100
      3 F1           2.0510     0.0080     3.5740 f          1 ZTN      -0.117900
      4 C3           1.3790     0.0020     2.4030 ca         1 ZTN       0.076900
      5 C2           2.0750     0.0000     1.2020 ca         1 ZTN       0.093100
      6 C1           1.3820     0.0000     0.0000 ca         1 ZTN      -0.148000
      7 C4          -0.0070    -0.0020     2.3970 ca         1 ZTN       0.109900
      8 F           -0.6870    -0.0000     3.5650 f          1 ZTN      -0.124900
      9 C5          -0.6940     0.0020     1.1950 ca         1 ZTN      -0.153000
     10 H1          -0.5400     0.0020    -0.9390 ha         1 ZTN       0.145000
     11 H2           3.7490    -0.8850     1.1190 ho         1 ZTN       0.426000
     12 H3           1.9230    -0.0020    -0.9380 ha         1 ZTN       0.151000
     13 H4          -1.7770     0.0000     1.1910 ha         1 ZTN       0.154000
@<TRIPOS>BOND
     1     2     5 1
     2     3     4 1
     3     5     4 ar
     4     5     6 ar
     5     4     7 ar
     6     6     1 ar
     7     7     8 1
     8     7     9 ar
     9     1     9 ar
    10     1    10 1
    11     2    11 1
    12     6    12 1
    13     9    13 1
@<TRIPOS>SUBSTRUCTURE
     1 ZTN         1 TEMP              0 ****  ****    0 ROOT
