@<TRIPOS>MOLECULE
ZTW
   27    29     1     0     0
SMALL
bcc


@<TRIPOS>ATOM
      1 C1          0.0040   -0.2340   -0.0030 ca        1 ZTW     -0.052000
      2 C2          1.3830   -0.2160    0.1050 ca        1 ZTW     -0.209000
      3 C3          1.9880   -0.0800    1.3770 ca        1 ZTW      0.131100
      4 O3          3.3560   -0.0570    1.5320 oh        1 ZTW     -0.497100
      5 C4          1.2300    0.0400    2.5430 ca        1 ZTW     -0.132000
      6 C5         -0.1610    0.0210    2.4280 ca        1 ZTW     -0.042100
      7 S6         -1.3210    0.1440    3.6440 ss        1 ZTW      0.022500
      8 C7         -2.6350    0.0270    2.5600 cc        1 ZTW     -0.025600
      9 C8         -4.0000    0.0700    3.0280 ca        1 ZTW     -0.060800
     10 C9         -4.3180    0.7290    4.2290 ca        1 ZTW     -0.081500
     11 C10        -5.6250    0.7790    4.6920 ca        1 ZTW     -0.183000
     12 C11        -6.6400    0.1590    3.9420 ca        1 ZTW      0.129100
     13 O11        -7.9160    0.2410    4.4500 oh        1 ZTW     -0.495100
     14 C12        -6.3430   -0.5040    2.7440 ca        1 ZTW     -0.183000
     15 C13        -5.0260   -0.5450    2.2950 ca        1 ZTW     -0.081500
     16 C14        -0.7800   -0.1160    1.1520 ca        1 ZTW     -0.112800
     17 C15        -2.2150   -0.1090    1.2610 cd        1 ZTW     -0.117200
     18 H1         -0.4800   -0.3380   -0.9850 ha        1 ZTW      0.138000
     19 H2          2.0150   -0.3070   -0.7890 ha        1 ZTW      0.134000
     20 H3          3.7570   -0.1480    0.6550 ho        1 ZTW      0.420000
     21 H4          1.7270    0.1450    3.5170 ha        1 ZTW      0.156000
     22 H9         -3.5170    1.2170    4.8090 ha        1 ZTW      0.139000
     23 H10        -5.8800    1.2940    5.6290 ha        1 ZTW      0.144000
     24 H11        -8.5100   -0.2230    3.8420 ho        1 ZTW      0.420000
     25 H12        -7.1410   -0.9890    2.1650 ha        1 ZTW      0.144000
     26 H13        -4.7870   -1.0700    1.3580 ha        1 ZTW      0.139000
     27 H15        -2.8670   -0.1940    0.3890 ha        1 ZTW      0.155000
@<TRIPOS>BOND
     1    1    2 ar  
     2    1   16 ar  
     3    1   18 1   
     4    2    3 ar  
     5    2   19 1   
     6    3    4 1   
     7    3    5 ar  
     8    4   20 1   
     9    5    6 ar  
    10    5   21 1   
    11    6    7 1   
    12    6   16 ar  
    13    7    8 1   
    14    8    9 1   
    15    8   17 2   
    16    9   10 ar  
    17    9   15 ar  
    18   10   11 ar  
    19   10   22 1   
    20   11   12 ar  
    21   11   23 1   
    22   12   13 1   
    23   12   14 ar  
    24   13   24 1   
    25   14   15 ar  
    26   14   25 1   
    27   15   26 1   
    28   16   17 1   
    29   17   27 1   
@<TRIPOS>SUBSTRUCTURE
     1 ZTW         1 TEMP              0 ****  ****    0 ROOT
