@<TRIPOS>MOLECULE
molecule
   27    29     1     0     0
SMALL
bcc


@<TRIPOS>ATOM
      1 C1           0.0000     0.0000     0.0000 ca         1 ZTW      -0.074000
      2 C2           1.3590     0.0000     0.0000 ca         1 ZTW      -0.157000
      3 C3           2.0850     0.0000     1.1890 ca         1 ZTW       0.120100
      4 O3           3.4440     0.0010     1.1610 oh         1 ZTW      -0.517100
      5 C4           1.4100     0.0010     2.3980 ca         1 ZTW      -0.120000
      6 C5           0.0320     0.0000     2.4070 ca         1 ZTW       0.021900
      7 S6          -1.1960    -0.0000     3.6880 ss         1 ZTW      -0.135500
      8 C7          -2.6580    -0.0020     2.6720 cc         1 ZTW       0.053400
      9 C8          -4.0720    -0.0030     3.1020 ca         1 ZTW      -0.028800
     10 C9          -4.4730     0.7740     4.1900 ca         1 ZTW      -0.096500
     11 C10         -5.7930     0.7710     4.5890 ca         1 ZTW      -0.153000
     12 C11         -6.7230    -0.0030     3.9080 ca         1 ZTW       0.112100
     13 O11         -8.0230    -0.0030     4.3040 oh         1 ZTW      -0.522100
     14 C12         -6.3280    -0.7790     2.8270 ca         1 ZTW      -0.153000
     15 C13         -5.0110    -0.7780     2.4210 ca         1 ZTW      -0.096500
     16 C14         -0.7260    -0.0010     1.2160 ca         1 ZTW      -0.099800
     17 C15         -2.1660    -0.0070     1.4110 cd         1 ZTW      -0.140200
     18 H1          -0.5350     0.0000    -0.9420 ha         1 ZTW       0.134000
     19 H2           1.8890     0.0000    -0.9450 ha         1 ZTW       0.142000
     20 H3           3.7600    -0.8860     1.2070 ho         1 ZTW       0.422000
     21 H4           1.9610     0.0010     3.3310 ha         1 ZTW       0.148000
     22 H9          -3.7470     1.3770     4.7220 ha         1 ZTW       0.141500
     23 H10         -6.1050     1.3730     5.4330 ha         1 ZTW       0.144500
     24 H11         -8.4910     0.6760     3.8470 ho         1 ZTW       0.421000
     25 H12         -7.0570    -1.3810     2.2980 ha         1 ZTW       0.144500
     26 H13         -4.7040    -1.3840     1.5770 ha         1 ZTW       0.141500
     27 H15         -2.8360    -0.0100     0.5600 ha         1 ZTW       0.146000
@<TRIPOS>BOND
     1     1     2 ar
     2     1    16 ar
     3     1    18 1
     4     2     3 ar
     5     2    19 1
     6     3     4 1
     7     3     5 ar
     8     4    20 1
     9     5     6 ar
    10     5    21 1
    11     6     7 1
    12     6    16 ar
    13     7     8 1
    14     8     9 1
    15     8    17 2
    16     9    10 ar
    17     9    15 ar
    18    10    11 ar
    19    10    22 1
    20    11    12 ar
    21    11    23 1
    22    12    13 1
    23    12    14 ar
    24    13    24 1
    25    14    15 ar
    26    14    25 1
    27    15    26 1
    28    16    17 1
    29    17    27 1
@<TRIPOS>SUBSTRUCTURE
     1 ZTW         1 TEMP              0 ****  ****    0 ROOT
