@<TRIPOS>MOLECULE
ZTX
   58    62     1     0     0
SMALL
bcc


@<TRIPOS>ATOM
      1 N1           0.0000     0.0000     0.0000 nb         1 ZTX      -0.681000
      2 C2           1.3240     0.0000     0.0000 ca         1 ZTX       0.706900
      3 N3           2.0190     0.0000     1.1290 nb         1 ZTX      -0.690000
      4 C4           1.4010     0.0010     2.3040 ca         1 ZTX       0.581200
      5 C5           0.0040     0.0320     2.3410 ca         1 ZTX      -0.402000
      6 C6          -0.6840     0.0160     1.1360 ca         1 ZTX       0.472200
      7 CAB         -0.4210    -0.5080     4.6740 c          1 ZTX       0.626100
      8 CAC          0.7030    -1.4270     4.8870 ca         1 ZTX      -0.156600
      9 CAD          1.9560    -1.1690     4.3180 ca         1 ZTX       0.059600
     10 NAE          2.1380    -0.0770     3.4770 na         1 ZTX      -0.382700
     11 CAF          3.0950     0.9780     3.8240 c3         1 ZTX       0.225100
     12 CAH          2.8350    -3.1420     5.3630 ca         1 ZTX      -0.068000
     13 CAI          1.5900    -3.4170     5.9050 ca         1 ZTX      -0.121000
     14 CAK          0.5280    -2.5700     5.6740 ca         1 ZTX      -0.026000
     15 CAL          3.0210    -2.0240     4.5740 ca         1 ZTX      -0.125000
     16 NAN          2.0010    -0.0010    -1.2100 nu         1 ZTX      -0.279300
     17 CAO          1.2870    -0.1180    -2.4110 ca         1 ZTX      -0.032400
     18 CAP          1.7380     0.5330    -3.5520 ca         1 ZTX      -0.091000
     19 CAQ          1.0340     0.4170    -4.7350 ca         1 ZTX      -0.129500
     20 CAR         -0.1220    -0.3510    -4.7830 ca         1 ZTX       0.009600
     21 NAS         -0.8350    -0.4670    -5.9820 nh         1 ZTX      -0.357000
     22 CAT         -1.2030     0.8530    -6.5070 c3         1 ZTX       0.140300
     23 CAU         -1.8500     0.6940    -7.8850 c3         1 ZTX      -0.046400
     24 CAV         -3.0920    -0.1910    -7.7610 c3         1 ZTX       0.189100
     25 OAW         -3.6680    -0.3900    -9.0540 oh         1 ZTX      -0.582800
     26 CAX         -2.6880    -1.5440    -7.1680 c3         1 ZTX      -0.046400
     27 CAY         -2.0180    -1.3200    -5.8110 c3         1 ZTX       0.140300
     28 CAZ         -0.5720    -1.0020    -3.6420 ca         1 ZTX      -0.129500
     29 CBA          0.1340    -0.8900    -2.4610 ca         1 ZTX      -0.091000
     30 NBG         -0.7000     0.1190     3.5400 n          1 ZTX       0.056000
     31 CBH         -1.8740     0.9980     3.5480 c3         1 ZTX       0.046300
     32 H6          -1.7670     0.0160     1.1230 h4         1 ZTX      -0.006900
     33 HAF          3.1630     1.0630     4.9020 h1         1 ZTX       0.006700
     34 HAFA         2.7610     1.9200     3.4080 h1         1 ZTX       0.006700
     35 HAFB         4.0690     0.7290     3.4200 h1         1 ZTX       0.006700
     36 HAH          3.6640    -3.8140     5.5500 ha         1 ZTX       0.103000
     37 HAI          1.4530    -4.2960     6.5220 ha         1 ZTX       0.108000
     38 HAK         -0.4440    -2.7900     6.1000 ha         1 ZTX       0.121000
     39 HAL          3.9970    -1.8150     4.1540 ha         1 ZTX       0.116000
     40 HNAN         3.0000     0.0550    -1.2250 hn         1 ZTX       0.293800
     41 HAP          2.6400     1.1310    -3.5140 ha         1 ZTX       0.119000
     42 HAQ          1.3850     0.9250    -5.6250 ha         1 ZTX       0.119000
     43 HAT         -0.3130     1.4650    -6.5960 h1         1 ZTX       0.018200
     44 HATA        -1.9060     1.3250    -5.8320 h1         1 ZTX       0.018200
     45 HAU         -2.1380     1.6680    -8.2620 hc         1 ZTX       0.030200
     46 HAUA        -1.1430     0.2320    -8.5640 hc         1 ZTX       0.030200
     47 HAV         -3.8120     0.2880    -7.1090 h1         1 ZTX      -0.004300
     48 HOAW        -4.5520    -0.0640    -9.0580 ho         1 ZTX       0.387000
     49 HAX         -1.9930    -2.0380    -7.8360 hc         1 ZTX       0.030200
     50 HAXA        -3.5710    -2.1580    -7.0370 hc         1 ZTX       0.030200
     51 HAY         -1.7160    -2.2750    -5.3970 h1         1 ZTX       0.018200
     52 HAYA        -2.7170    -0.8350    -5.1400 h1         1 ZTX       0.018200
     53 HAZ         -1.4730    -1.6020    -3.6800 ha         1 ZTX       0.119000
     54 HBA         -0.2170    -1.3980    -1.5710 ha         1 ZTX       0.119000
     55 HBH         -1.7770     1.7370     2.7630 h1         1 ZTX       0.022367
     56 HBHA        -1.9440     1.4970     4.5070 h1         1 ZTX       0.022367
     57 HBHB        -2.7670     0.4080     3.3820 h1         1 ZTX       0.022367
     58 OAA         -1.1610    -0.3050     5.6170 o          1 ZTX      -0.688500
@<TRIPOS>BOND
     1     1     2 ar  
     2     1     6 ar  
     3     2     3 ar  
     4     2    16 1   
     5     3     4 ar  
     6     4     5 ar  
     7     4    10 1   
     8     5     6 ar  
     9     5    30 1   
    10     6    32 1   
    11     7     8 1   
    12     7    30 1   
    13     7    58 2   
    14     8     9 ar  
    15     8    14 ar  
    16     9    10 1   
    17     9    15 ar  
    18    10    11 1   
    19    11    33 1   
    20    11    34 1   
    21    11    35 1   
    22    12    13 ar  
    23    12    15 ar  
    24    12    36 1   
    25    13    14 ar  
    26    13    37 1   
    27    14    38 1   
    28    15    39 1   
    29    16    17 1   
    30    16    40 1   
    31    17    18 ar  
    32    17    29 ar  
    33    18    19 ar  
    34    18    41 1   
    35    19    20 ar  
    36    19    42 1   
    37    20    21 1   
    38    20    28 ar  
    39    21    22 1   
    40    21    27 1   
    41    22    23 1   
    42    22    43 1   
    43    22    44 1   
    44    23    24 1   
    45    23    45 1   
    46    23    46 1   
    47    24    25 1   
    48    24    26 1   
    49    24    47 1   
    50    25    48 1   
    51    26    27 1   
    52    26    49 1   
    53    26    50 1   
    54    27    51 1   
    55    27    52 1   
    56    28    29 ar  
    57    28    53 1   
    58    29    54 1   
    59    30    31 1   
    60    31    55 1   
    61    31    56 1   
    62    31    57 1   
@<TRIPOS>SUBSTRUCTURE
     1 ZTX         1 TEMP              0 ****  ****    0 ROOT
