@<TRIPOS>MOLECULE
molecule
   43    44     1     0     0
SMALL
bcc


@<TRIPOS>ATOM
      1 O17          0.0000     0.0000     0.0000 o          1 ZU4      -0.670500
      2 C6           1.2200     0.0000     0.0000 c          1 ZU4       0.687700
      3 C1           1.9240     0.0000     1.2170 cc         1 ZU4      -0.269200
      4 C2           3.2870    -0.0010     1.2000 cd         1 ZU4       0.006800
      5 C16          4.0650    -0.0010     2.4910 c3         1 ZU4      -0.046200
      6 C17          4.4350    -1.4390     2.8640 c3         1 ZU4      -0.076400
      7 C18          5.2240    -1.4390     4.1740 c3         1 ZU4      -0.083400
      8 C19          5.5940    -2.8770     4.5460 c3         1 ZU4      -0.081400
      9 C20          6.3840    -2.8760     5.8560 c3         1 ZU4      -0.084400
     10 C21          6.7540    -4.3140     6.2290 c3         1 ZU4      -0.092100
     11 C3           3.9580    -0.0020    -0.0300 cd         1 ZU4      -0.246000
     12 C4           3.2510    -0.0020    -1.1850 cc         1 ZU4       0.005600
     13 C8           1.8980     2.1240    -3.5010 ca         1 ZU4       0.038400
     14 C9           1.6640     3.4270    -3.9060 ca         1 ZU4      -0.123000
     15 C10          0.4320     4.0100    -3.6800 ca         1 ZU4      -0.111000
     16 C11         -0.5680     3.2910    -3.0490 ca         1 ZU4      -0.128000
     17 C12         -0.3350     1.9900    -2.6450 ca         1 ZU4      -0.086000
     18 C13          0.8980     1.4060    -2.8710 ca         1 ZU4      -0.110300
     19 NAD          1.8930    -0.0060    -1.1670 n          1 ZU4      -0.313000
     20 C14          1.1520    -0.0120    -2.4300 c3         1 ZU4       0.135300
     21 H1           1.3940     0.1570     2.1490 ha         1 ZU4       0.163000
     22 H161         4.9680     0.5840     2.3690 hc         1 ZU4       0.052700
     23 H162         3.4580     0.4310     3.2780 hc         1 ZU4       0.052700
     24 H3           5.0410    -0.0000    -0.0580 ha         1 ZU4       0.146000
     25 H171         5.0410    -1.8710     2.0770 hc         1 ZU4       0.047700
     26 H172         3.5310    -2.0240     2.9860 hc         1 ZU4       0.047700
     27 H181         4.6170    -1.0070     4.9610 hc         1 ZU4       0.041700
     28 H182         6.1270    -0.8540     4.0520 hc         1 ZU4       0.041700
     29 H191         4.6900    -3.4620     4.6690 hc         1 ZU4       0.042700
     30 H192         6.2000    -3.3090     3.7590 hc         1 ZU4       0.042700
     31 H201         7.2870    -2.2910     5.7330 hc         1 ZU4       0.040200
     32 H202         5.7780    -2.4440     6.6440 hc         1 ZU4       0.040200
     33 H211         5.8500    -4.8990     6.3510 hc         1 ZU4       0.033033
     34 H212         7.3130    -4.3140     7.1570 hc         1 ZU4       0.033033
     35 H213         7.3600    -4.7460     5.4420 hc         1 ZU4       0.033033
     36 H4           3.7740    -0.0050    -2.1340 h4         1 ZU4       0.167000
     37 H9           2.4470     3.9900    -4.4000 ha         1 ZU4       0.145000
     38 H10          0.2480     5.0290    -3.9960 ha         1 ZU4       0.138000
     39 H11         -1.5340     3.7480    -2.8720 ha         1 ZU4       0.139000
     40 H12         -1.1190     1.4280    -2.1510 ha         1 ZU4       0.159000
     41 H141         1.7320    -0.5270    -3.1870 h1         1 ZU4       0.080700
     42 H142         0.2060    -0.5220    -2.2910 h1         1 ZU4       0.080700
     43 Cl           3.4440     1.3890    -3.7910 cl         1 ZU4      -0.119400
@<TRIPOS>BOND
     1     1     2 2
     2     2     3 1
     3     2    19 1
     4     3     4 2
     5     4     5 1
     6     4    11 1
     7     5     6 1
     8     6     7 1
     9     7     8 1
    10     8     9 1
    11     9    10 1
    12    11    12 2
    13    12    19 1
    14    13    14 ar
    15    13    18 ar
    16    13    43 1
    17    14    15 ar
    18    15    16 ar
    19    16    17 ar
    20    17    18 ar
    21    18    20 1
    22    20    19 1
    23     3    21 1
    24     5    22 1
    25     5    23 1
    26    11    24 1
    27     6    25 1
    28     6    26 1
    29     7    27 1
    30     7    28 1
    31     8    29 1
    32     8    30 1
    33     9    31 1
    34     9    32 1
    35    10    33 1
    36    10    34 1
    37    10    35 1
    38    12    36 1
    39    14    37 1
    40    15    38 1
    41    16    39 1
    42    17    40 1
    43    20    41 1
    44    20    42 1
@<TRIPOS>SUBSTRUCTURE
     1 ZU4         1 TEMP              0 ****  ****    0 ROOT
