@<TRIPOS>MOLECULE
molecule
   28    30     1     0     0
SMALL
bcc


@<TRIPOS>ATOM
      1 C10          0.0000     0.0000     0.0000 cc         1 ZUF       0.697300
      2 N12         -0.8010    -0.0000    -1.1320 nu         1 ZUF      -0.834600
      3 C13         -0.2230     0.1060    -2.3940 ca         1 ZUF       0.685200
      4 C15         -0.4470     0.3200    -4.7660 ca         1 ZUF      -0.045000
      5 C17          1.6850     0.2070    -3.6890 ca         1 ZUF       0.484200
      6 C01         -1.5310     0.0260     5.3490 ca         1 ZUF      -0.100000
      7 C02         -0.4960     0.0240     6.2750 ca         1 ZUF      -0.256300
      8 C03          0.8120     0.0160     5.8300 ca         1 ZUF       0.420200
      9 N04          1.0890     0.0100     4.5410 nb         1 ZUF      -0.692000
     10 C05          0.1290     0.0120     3.6240 ca         1 ZUF       0.401300
     11 C06         -1.2130     0.0140     4.0030 ca         1 ZUF      -0.218300
     12 C07          0.4880     0.0050     2.1860 cd         1 ZUF       0.330300
     13 C08          1.7640     0.0000     1.7610 cc         1 ZUF      -0.190400
     14 S09          1.7600     0.0000     0.0000 ss         1 ZUF      -0.132300
     15 N11         -0.4320     0.0060     1.2220 nd         1 ZUF      -0.746000
     16 C14         -1.0350     0.2170    -3.5180 ca         1 ZUF      -0.289300
     17 C16          0.9400     0.3100    -4.8480 ca         1 ZUF      -0.144900
     18 N18          1.0960     0.1040    -2.5130 nb         1 ZUF      -0.745000
     19 Cl1          1.7280     0.4450    -6.3890 cl         1 ZUF      -0.093400
     20 H1          -1.7930    -0.1050    -1.0430 hn         1 ZUF       0.474800
     21 H2          -1.0550     0.4040    -5.6590 ha         1 ZUF       0.156000
     22 H3           2.7670     0.2010    -3.7480 h4         1 ZUF       0.042100
     23 H5          -0.7120     0.0310     7.3360 ha         1 ZUF       0.136000
     24 H6           1.6210     0.0150     6.5500 h4         1 ZUF       0.022100
     25 H7          -1.9950     0.0160     3.2540 ha         1 ZUF       0.157000
     26 H8           2.6430    -0.0000     2.3940 h4         1 ZUF       0.197000
     27 H9          -2.1130     0.2220    -3.4170 ha         1 ZUF       0.148000
     28 H4          -2.5640     0.0300     5.6740 ha         1 ZUF       0.137000
@<TRIPOS>BOND
     1    19    17 1
     2     5    17 ar
     3     5    18 ar
     4    17     4 ar
     5    18     3 ar
     6    14    13 1
     7    14     1 1
     8    13    12 2
     9     4    16 ar
    10     3    16 ar
    11     3     2 1
    12     1     2 1
    13     1    15 2
    14    11     6 ar
    15    11    10 ar
    16    12    15 1
    17    12    10 1
    18     6     7 ar
    19    10     9 ar
    20     7     8 ar
    21     9     8 ar
    22     2    20 1
    23     4    21 1
    24     5    22 1
    25     6    28 1
    26     7    23 1
    27     8    24 1
    28    11    25 1
    29    13    26 1
    30    16    27 1
@<TRIPOS>SUBSTRUCTURE
     1 ZUF         1 TEMP              0 ****  ****    0 ROOT
