@<TRIPOS>MOLECULE
ZUF
   28    30     1     0     0
SMALL
bcc


@<TRIPOS>ATOM
      1 C10          0.0000     0.0000     0.0000 cc         1 ZUF       0.541300
      2 N12         -0.8010    -0.0000    -1.1320 nu         1 ZUF      -0.350600
      3 C13         -0.2230     0.1060    -2.3940 ca         1 ZUF       0.466200
      4 C15         -0.4470     0.3200    -4.7660 ca         1 ZUF      -0.020000
      5 C17          1.6850     0.2070    -3.6890 ca         1 ZUF       0.457200
      6 C01         -1.5310     0.0260     5.3490 ca         1 ZUF      -0.074000
      7 C02         -0.4960     0.0240     6.2750 ca         1 ZUF      -0.223300
      8 C03          0.8120     0.0160     5.8300 ca         1 ZUF       0.400200
      9 N04          1.0890     0.0100     4.5410 nb         1 ZUF      -0.576000
     10 C05          0.1290     0.0120     3.6240 ca         1 ZUF       0.346300
     11 C06         -1.2130     0.0140     4.0030 ca         1 ZUF      -0.190300
     12 C07          0.4880     0.0050     2.1860 cd         1 ZUF       0.286300
     13 C08          1.7640     0.0000     1.7610 cc         1 ZUF      -0.112400
     14 S09          1.7600     0.0000     0.0000 ss         1 ZUF      -0.275300
     15 N11         -0.4320     0.0060     1.2220 nd         1 ZUF      -0.629000
     16 C14         -1.0350     0.2170    -3.5180 ca         1 ZUF      -0.263300
     17 C16          0.9400     0.3100    -4.8480 ca         1 ZUF      -0.207900
     18 N18          1.0960     0.1040    -2.5130 nb         1 ZUF      -0.601000
     19 Cl1          1.7280     0.4450    -6.3890 cl         1 ZUF      -0.003400
     20 H1          -1.7930    -0.1050    -1.0430 hn         1 ZUF       0.294800
     21 H2          -1.0550     0.4040    -5.6590 ha         1 ZUF       0.119000
     22 H3           2.7670     0.2010    -3.7480 h4         1 ZUF      -0.006900
     23 H5          -0.7120     0.0310     7.3360 ha         1 ZUF       0.111000
     24 H6           1.6210     0.0150     6.5500 h4         1 ZUF      -0.021900
     25 H7          -1.9950     0.0160     3.2540 ha         1 ZUF       0.130000
     26 H8           2.6430    -0.0000     2.3940 h4         1 ZUF       0.174000
     27 H9          -2.1130     0.2220    -3.4170 ha         1 ZUF       0.122000
     28 H4          -2.5640     0.0300     5.6740 ha         1 ZUF       0.107000
@<TRIPOS>BOND
     1     1     2 1   
     2     1    14 1   
     3     1    15 2   
     4     2     3 1   
     5     2    20 1   
     6     3    16 ar  
     7     3    18 ar  
     8     4    16 ar  
     9     4    17 ar  
    10     4    21 1   
    11     5    17 ar  
    12     5    18 ar  
    13     5    22 1   
    14     6     7 ar  
    15     6    11 ar  
    16     6    28 1   
    17     7     8 ar  
    18     7    23 1   
    19     8     9 ar  
    20     8    24 1   
    21     9    10 ar  
    22    10    11 ar  
    23    10    12 1   
    24    11    25 1   
    25    12    13 2   
    26    12    15 1   
    27    13    14 1   
    28    13    26 1   
    29    16    27 1   
    30    17    19 1   
@<TRIPOS>SUBSTRUCTURE
     1 ZUF         1 TEMP              0 ****  ****    0 ROOT
