@<TRIPOS>MOLECULE
molecule
   53    56     1     0     0
SMALL
bcc


@<TRIPOS>ATOM
      1 O2           0.0000     0.0000     0.0000 o          1 ZUI      -0.619500
      2 C21          1.2170     0.0000     0.0000 c          1 ZUI       0.707700
      3 C1           1.9310     0.0000     1.2230 cc         1 ZUI      -0.278400
      4 C            1.1940     0.0000     2.5380 c3         1 ZUI      -0.013900
      5 N3           1.8980    -0.0060    -1.1640 ns         1 ZUI      -0.560500
      6 C20          3.2450    -0.0060    -1.1620 c          1 ZUI       0.807500
      7 O1           3.8450    -0.0110    -2.2190 o          1 ZUI      -0.651500
      8 N            3.9340    -0.0000    -0.0070 n          1 ZUI      -0.362000
      9 C2           3.2810     0.0000     1.1960 cd         1 ZUI       0.028600
     10 C3           5.3990    -0.0010    -0.0370 c3         1 ZUI       0.122700
     11 C19          5.8950    -1.2510    -0.7690 c3         1 ZUI      -0.101400
     12 C18          7.4240    -1.2150    -0.8500 c3         1 ZUI       0.166300
     13 N1           7.8490    -0.0060    -1.5660 n3         1 ZUI      -0.719600
     14 C5           7.4240     1.2080    -0.8570 c3         1 ZUI       0.166300
     15 C4           5.8970     1.2440    -0.7750 c3         1 ZUI      -0.101400
     16 C6           9.3020    -0.0070    -1.7850 c3         1 ZUI       0.211100
     17 C7           9.6690     1.1120    -2.7250 ca         1 ZUI      -0.169600
     18 C17          9.9800     2.3690    -2.2320 ca         1 ZUI      -0.177000
     19 C10         10.3130     3.3710    -3.1380 ca         1 ZUI       0.008800
     20 C9          10.3210     3.0780    -4.4940 ca         1 ZUI       0.402200
     21 N2          10.0180     1.8690    -4.9230 nb         1 ZUI      -0.654000
     22 C8           9.7040     0.8950    -4.0910 ca         1 ZUI       0.407200
     23 O           10.6260     4.6190    -2.7010 os         1 ZUI      -0.241200
     24 C11         10.6050     4.8500    -1.3620 ca         1 ZUI       0.106100
     25 C16         11.7500     4.6540    -0.6050 ca         1 ZUI      -0.134000
     26 C15         11.7260     4.8900     0.7570 ca         1 ZUI       0.035400
     27 Cl          13.1590     4.6460     1.7060 cl         1 ZUI      -0.096400
     28 C14         10.5590     5.3210     1.3640 ca         1 ZUI      -0.123000
     29 C13          9.4160     5.5160     0.6120 ca         1 ZUI      -0.113000
     30 C12          9.4380     5.2870    -0.7510 ca         1 ZUI      -0.138000
     31 H3           0.5830     0.8920     2.6090 hc         1 ZUI       0.048033
     32 H1           1.9090    -0.0130     3.3520 hc         1 ZUI       0.048033
     33 H2           0.5620    -0.8770     2.5980 hc         1 ZUI       0.048033
     34 H            1.4010    -0.0100    -2.0320 hn         1 ZUI       0.363500
     35 H4           3.8440     0.0020     2.1210 h4         1 ZUI       0.163000
     36 H5           5.7870     0.0010     0.9740 h1         1 ZUI       0.059700
     37 H22          5.5840    -2.1350    -0.2250 hc         1 ZUI       0.074450
     38 H21          5.4820    -1.2720    -1.7700 hc         1 ZUI       0.074450
     39 H20          7.8370    -1.2040     0.1510 h1         1 ZUI       0.036700
     40 H19          7.7760    -2.0900    -1.3820 h1         1 ZUI       0.036700
     41 H8           7.8380     1.2030     0.1440 h1         1 ZUI       0.036700
     42 H9           7.7760     2.0800    -1.3940 h1         1 ZUI       0.036700
     43 H6           5.4830     1.2600    -1.7760 hc         1 ZUI       0.074450
     44 H7           5.5860     2.1310    -0.2360 hc         1 ZUI       0.074450
     45 H10          9.6010    -0.9540    -2.2170 h1         1 ZUI       0.043700
     46 H11          9.8090     0.1360    -0.8390 h1         1 ZUI       0.043700
     47 H18          9.9650     2.5660    -1.1670 ha         1 ZUI       0.148000
     48 H13         10.5760     3.8510    -5.2080 h4         1 ZUI       0.037100
     49 H12          9.4610    -0.0860    -4.4820 h4         1 ZUI       0.033100
     50 H17         12.6760     4.3680    -1.0890 ha         1 ZUI       0.161000
     51 H16         10.5410     5.5030     2.4320 ha         1 ZUI       0.148000
     52 H15          8.5050     5.8550     1.0900 ha         1 ZUI       0.144000
     53 H14          8.5420     5.4400    -1.3400 ha         1 ZUI       0.151000
@<TRIPOS>BOND
     1     1     2 2
     2     2     5 1
     3     2     3 1
     4     5     6 1
     5     4     3 1
     6     3     9 2
     7     6     7 2
     8     6     8 1
     9     9     8 1
    10     8    10 1
    11    11    10 1
    12    11    12 1
    13    10    15 1
    14    12    13 1
    15    21    22 ar
    16    21    20 ar
    17    22    17 ar
    18    20    19 ar
    19    15    14 1
    20    27    26 1
    21    13    14 1
    22    13    16 1
    23    17    16 1
    24    17    18 ar
    25    19    18 ar
    26    19    23 1
    27    25    26 ar
    28    25    24 ar
    29    26    28 ar
    30    23    24 1
    31    24    30 ar
    32    28    29 ar
    33    30    29 ar
    34     4    31 1
    35     4    32 1
    36     4    33 1
    37     5    34 1
    38     9    35 1
    39    10    36 1
    40    11    37 1
    41    11    38 1
    42    12    39 1
    43    12    40 1
    44    14    41 1
    45    14    42 1
    46    15    43 1
    47    15    44 1
    48    16    45 1
    49    16    46 1
    50    18    47 1
    51    20    48 1
    52    22    49 1
    53    25    50 1
    54    28    51 1
    55    29    52 1
    56    30    53 1
@<TRIPOS>SUBSTRUCTURE
     1 ZUI         1 TEMP              0 ****  ****    0 ROOT
