@<TRIPOS>MOLECULE
ZUN
   52    54     1     0     0
SMALL
bcc


@<TRIPOS>ATOM
      1 CAA         0.6190   -1.2140    1.2000 c3        1 ZUN     -0.156400
      2 CAW         2.0360   -1.6170    1.2240 cc        1 ZUN      0.389600
      3 CAK         3.0580   -1.0920    0.2960 cc        1 ZUN     -0.305600
      4 NAQ         2.6190   -2.4960    2.0600 nd        1 ZUN     -0.406300
      5 OAT         3.9080   -2.5890    1.7590 os        1 ZUN     -0.234100
      6 CAZ         4.2200   -1.7240    0.6640 cd        1 ZUN      0.256000
      7 CAM         5.6190   -1.7370    0.2110 c3        1 ZUN     -0.172700
      8 CAU         6.4390   -2.5950    1.1570 c         1 ZUN      0.677100
      9 OAB         6.5630   -3.8260    0.9790 o         1 ZUN     -0.629100
     10 N           6.9090   -2.0500    2.3490 n         1 ZUN     -0.472800
     11 CD2         7.2080   -0.6380    2.5400 c3        1 ZUN      0.044000
     12 CG          8.3220   -0.5330    3.6170 c3        1 ZUN      0.140100
     13 OD1         9.5350   -0.1570    3.0000 oh        1 ZUN     -0.582800
     14 CB          8.5110   -1.9560    4.1680 c3        1 ZUN     -0.094400
     15 CA          7.6650   -2.8820    3.2670 c3        1 ZUN      0.043700
     16 C           6.7990   -3.8040    4.1400 c         1 ZUN      0.537100
     17 O           7.1440   -4.3140    5.1950 o         1 ZUN     -0.435100
     18 NAR         5.4290   -4.1710    3.6160 n4        1 ZUN     -0.679800
     19 CAL         4.6900   -5.1890    4.4170 c3        1 ZUN      0.149100
     20 CAX         5.0540   -6.6050    4.0820 ca        1 ZUN     -0.092300
     21 CAE         6.0030   -7.2810    4.8540 ca        1 ZUN     -0.084000
     22 CAG         6.2850   -8.6280    4.6140 ca        1 ZUN     -0.071500
     23 CAF         4.3850   -7.2710    3.0470 ca        1 ZUN     -0.084000
     24 CAH         4.6480   -8.6140    2.7850 ca        1 ZUN     -0.071500
     25 CAY         5.6010   -9.2790    3.5780 ca        1 ZUN     -0.038400
     26 NBB         5.8910  -10.7160    3.2600 n4        1 ZUN     -0.096800
     27 OAS         6.5800  -11.2760    4.2780 oh        1 ZUN     -0.385300
     28 OAD         4.7880  -11.4670    3.0640 oh        1 ZUN     -0.385300
     29 HAA1        0.1740   -1.4790    0.2060 hc        1 ZUN      0.081700
     30 HAA2        0.0230   -1.7120    2.0030 hc        1 ZUN      0.081700
     31 HAA3        0.5460   -0.1040    1.3360 hc        1 ZUN      0.081700
     32 HAK         2.8780   -0.3650   -0.4920 ha        1 ZUN      0.205000
     33 HAM1        6.0120   -0.6870    0.1430 hc        1 ZUN      0.121200
     34 HAM2        5.6820   -2.2000   -0.8160 hc        1 ZUN      0.121200
     35 HD21        7.5670   -0.1690    1.5810 h1        1 ZUN      0.083200
     36 HD22        6.2740   -0.1140    2.8820 h1        1 ZUN      0.083200
     37 HA          8.3300   -3.6040    2.6940 h1        1 ZUN      0.133700
     38 HG          8.0240    0.1860    4.4240 h1        1 ZUN      0.082700
     39 HD1         9.6500    0.7950    3.1190 ho        1 ZUN      0.434000
     40 HB1C        8.1920   -2.0140    5.2370 hc        1 ZUN      0.103700
     41 HB2C        9.5910   -2.2520    4.1030 hc        1 ZUN      0.103700
     42 HAR         4.8600   -3.3070    3.5890 hn        1 ZUN      0.491300
     43 HAL1        3.5850   -5.0290    4.2220 hx        1 ZUN      0.130700
     44 HAL2        4.8880   -4.9900    5.5130 hx        1 ZUN      0.130700
     45 HAE         6.5370   -6.7560    5.6690 ha        1 ZUN      0.187500
     46 HAF         3.6300   -6.7460    2.4350 ha        1 ZUN      0.187500
     47 HAG         7.0280   -9.1540    5.2410 ha        1 ZUN      0.193000
     48 HAH         4.1050   -9.1310    1.9740 ha        1 ZUN      0.193000
     49 HAD         4.1630  -11.3550    3.8200 ho        1 ZUN      0.501000
     50 HAS         6.7070  -12.2410    4.0940 ho        1 ZUN      0.501000
     51 HAR2        5.5290   -4.4980    2.6370 hn        1 ZUN      0.491300
     52 HBB1        6.4340  -10.7660    2.3530 hn        1 ZUN      0.521800
@<TRIPOS>BOND
     1    1    2 1   
     2    1   29 1   
     3    1   30 1   
     4    1   31 1   
     5    2    3 1   
     6    2    4 2   
     7    3    6 2   
     8    3   32 1   
     9    4    5 1   
    10    5    6 1   
    11    6    7 1   
    12    7    8 1   
    13    7   33 1   
    14    7   34 1   
    15    8    9 2   
    16    8   10 1   
    17   10   11 1   
    18   10   15 1   
    19   11   12 1   
    20   11   35 1   
    21   11   36 1   
    22   12   13 1   
    23   12   14 1   
    24   12   38 1   
    25   13   39 1   
    26   14   15 1   
    27   14   40 1   
    28   14   41 1   
    29   15   16 1   
    30   15   37 1   
    31   16   17 2   
    32   16   18 1   
    33   18   19 1   
    34   18   42 1   
    35   18   51 1   
    36   19   20 1   
    37   19   43 1   
    38   19   44 1   
    39   20   21 ar  
    40   20   23 ar  
    41   21   22 ar  
    42   21   45 1   
    43   22   25 ar  
    44   22   47 1   
    45   23   24 ar  
    46   23   46 1   
    47   24   25 ar  
    48   24   48 1   
    49   25   26 1   
    50   26   27 1   
    51   26   28 1   
    52   26   52 1   
    53   27   50 1   
    54   28   49 1   
@<TRIPOS>SUBSTRUCTURE
     1 ZUN         1 TEMP              0 ****  ****    0 ROOT
