@<TRIPOS>MOLECULE
molecule
   36    39     1     0     0
SMALL
bcc


@<TRIPOS>ATOM
      1 C1           0.0000     0.0000     0.0000 ca         1 ZUQ      -0.305300
      2 C5           0.0650     0.0010     2.3940 ca         1 ZUQ      -0.341300
      3 C2           1.3770     0.0000     0.0000 ca         1 ZUQ       0.466200
      4 C10         -4.7930    -1.0600    -0.9800 ca         1 ZUQ       0.476200
      5 C6          -0.6820     0.0000     1.2190 ca         1 ZUQ       0.217600
      6 C8          -2.8000    -0.7030     0.2960 ca         1 ZUQ       0.234600
      7 C13         -2.2370    -1.7890    -0.3710 ca         1 ZUQ      -0.125200
      8 C9          -4.1090    -0.3380    -0.0230 ca         1 ZUQ      -0.166900
      9 C4           1.4490     0.0000     2.3110 ca         1 ZUQ       0.593200
     10 C12         -2.9900    -2.4670    -1.3230 ca         1 ZUQ       0.625600
     11 C19          3.5520     0.1120     3.4090 c          1 ZUQ       0.655100
     12 C22          6.1430     0.4670     4.1560 cx         1 ZUQ      -0.106900
     13 C23          5.3860     1.7410     4.5350 cx         1 ZUQ      -0.106900
     14 C15         -1.1570    -3.6700    -0.8950 c3         1 ZUQ       0.329200
     15 C21          4.6410     0.4070     4.4440 cx         1 ZUQ      -0.198700
     16 N3           2.0560     0.0000     1.1330 nb         1 ZUQ      -0.682000
     17 N11         -4.2290    -2.0830    -1.5930 nb         1 ZUQ      -0.696000
     18 N7          -2.0750     0.0010     1.2590 nu         1 ZUQ      -0.667000
     19 N18          2.2110     0.0000     3.4790 ns         1 ZUQ      -0.550400
     20 O20          3.8550    -0.1020     2.2540 o          1 ZUQ      -0.530100
     21 O14         -1.0080    -2.3760    -0.2800 os         1 ZUQ      -0.304900
     22 O16         -2.2320    -3.4800    -1.8340 os         1 ZUQ      -0.425100
     23 Cl          -4.8660     1.0070     0.7730 cl         1 ZUQ      -0.088400
     24 H1          -0.5480    -0.0000    -0.9340 ha         1 ZUQ       0.146000
     25 H2           1.9110    -0.0000    -0.9430 h4         1 ZUQ       0.029100
     26 H5          -0.4280     0.0010     3.3590 ha         1 ZUQ       0.134000
     27 H7          -2.5550     0.4920     1.9870 hn         1 ZUQ       0.463800
     28 H18          1.7650    -0.1130     4.3680 hn         1 ZUQ       0.309500
     29 H21          4.5160     0.0390     5.4550 hc         1 ZUQ       0.074700
     30 H221         6.4230     0.3820     3.1130 hc         1 ZUQ       0.084450
     31 H222         6.7830     0.0560     4.9270 hc         1 ZUQ       0.084450
     32 H231         5.2040     2.4350     3.7230 hc         1 ZUQ       0.084450
     33 H232         5.5650     2.1100     5.5380 hc         1 ZUQ       0.084450
     34 H151        -1.4270    -4.4130    -0.1550 h2         1 ZUQ       0.077200
     35 H152        -0.2480    -3.9510    -1.4130 h2         1 ZUQ       0.077200
     36 H10         -5.8090    -0.7810    -1.2320 h4         1 ZUQ       0.047100
@<TRIPOS>BOND
     1     1     3 ar
     2     1     5 ar
     3     2     5 ar
     4     2     9 ar
     5     3    16 ar
     6     4     8 ar
     7     4    17 ar
     8     5    18 1
     9     6     7 ar
    10     6     8 ar
    11     6    18 1
    12     7    10 ar
    13     7    21 1
    14     8    23 1
    15     9    16 ar
    16     9    19 1
    17    10    17 ar
    18    10    22 1
    19    11    15 1
    20    11    19 1
    21    11    20 2
    22    12    13 1
    23    12    15 1
    24    13    15 1
    25    14    21 1
    26    14    22 1
    27     1    24 1
    28     3    25 1
    29     2    26 1
    30     4    36 1
    31    18    27 1
    32    19    28 1
    33    15    29 1
    34    12    30 1
    35    12    31 1
    36    13    32 1
    37    13    33 1
    38    14    34 1
    39    14    35 1
@<TRIPOS>SUBSTRUCTURE
     1 ZUQ         1 TEMP              0 ****  ****    0 ROOT
