@<TRIPOS>MOLECULE
ZUQ
   36    39     1     0     0
SMALL
bcc


@<TRIPOS>ATOM
      1 C1           0.0000     0.0000     0.0000 ca         1 ZUQ      -0.282300
      2 C5           0.0650     0.0010     2.3940 ca         1 ZUQ      -0.316300
      3 C2           1.3770     0.0000     0.0000 ca         1 ZUQ       0.455200
      4 C10         -4.7930    -1.0600    -0.9800 ca         1 ZUQ       0.447200
      5 C6          -0.6820     0.0000     1.2190 ca         1 ZUQ       0.063600
      6 C8          -2.8000    -0.7030     0.2960 ca         1 ZUQ       0.075600
      7 C13         -2.2370    -1.7890    -0.3710 ca         1 ZUQ      -0.112200
      8 C9          -4.1090    -0.3380    -0.0230 ca         1 ZUQ      -0.233900
      9 C4           1.4490     0.0000     2.3110 ca         1 ZUQ       0.403200
     10 C12         -2.9900    -2.4670    -1.3230 ca         1 ZUQ       0.582600
     11 C19          3.5520     0.1120     3.4090 c          1 ZUQ       0.557100
     12 C22          6.1430     0.4670     4.1560 cx         1 ZUQ      -0.050400
     13 C23          5.3860     1.7410     4.5350 cx         1 ZUQ      -0.050400
     14 C15         -1.1570    -3.6700    -0.8950 c3         1 ZUQ       0.427200
     15 C21          4.6410     0.4070     4.4440 cx         1 ZUQ      -0.169700
     16 N3           2.0560     0.0000     1.1330 nb         1 ZUQ      -0.563000
     17 N11         -4.2290    -2.0830    -1.5930 nb         1 ZUQ      -0.578000
     18 N7          -2.0750     0.0010     1.2590 nu         1 ZUQ      -0.210000
     19 N18          2.2110     0.0000     3.4790 ns         1 ZUQ      -0.102400
     20 O20          3.8550    -0.1020     2.2540 o          1 ZUQ      -0.578100
     21 O14         -1.0080    -2.3760    -0.2800 os         1 ZUQ      -0.292900
     22 O16         -2.2320    -3.4800    -1.8340 os         1 ZUQ      -0.422100
     23 Cl          -4.8660     1.0070     0.7730 cl         1 ZUQ       0.001600
     24 H1          -0.5480    -0.0000    -0.9340 ha         1 ZUQ       0.129000
     25 H2           1.9110    -0.0000    -0.9430 h4         1 ZUQ      -0.019900
     26 H5          -0.4280     0.0010     3.3590 ha         1 ZUQ       0.118000
     27 H7          -2.5550     0.4920     1.9870 hn         1 ZUQ       0.294800
     28 H18          1.7650    -0.1130     4.3680 hn         1 ZUQ       0.150500
     29 H21          4.5160     0.0390     5.4550 hc         1 ZUQ       0.045700
     30 H221         6.4230     0.3820     3.1130 hc         1 ZUQ       0.050450
     31 H222         6.7830     0.0560     4.9270 hc         1 ZUQ       0.050450
     32 H231         5.2040     2.4350     3.7230 hc         1 ZUQ       0.050450
     33 H232         5.5650     2.1100     5.5380 hc         1 ZUQ       0.050450
     34 H151        -1.4270    -4.4130    -0.1550 h2         1 ZUQ       0.017700
     35 H152        -0.2480    -3.9510    -1.4130 h2         1 ZUQ       0.017700
     36 H10         -5.8090    -0.7810    -1.2320 h4         1 ZUQ      -0.006900
@<TRIPOS>BOND
     1     1     3 ar  
     2     1     5 ar  
     3     1    24 1   
     4     2     5 ar  
     5     2     9 ar  
     6     2    26 1   
     7     3    16 ar  
     8     3    25 1   
     9     4     8 ar  
    10     4    17 ar  
    11     4    36 1   
    12     5    18 1   
    13     6     7 ar  
    14     6     8 ar  
    15     6    18 1   
    16     7    10 ar  
    17     7    21 1   
    18     8    23 1   
    19     9    16 ar  
    20     9    19 1   
    21    10    17 ar  
    22    10    22 1   
    23    11    15 1   
    24    11    19 1   
    25    11    20 2   
    26    12    13 1   
    27    12    15 1   
    28    12    30 1   
    29    12    31 1   
    30    13    15 1   
    31    13    32 1   
    32    13    33 1   
    33    14    21 1   
    34    14    22 1   
    35    14    34 1   
    36    14    35 1   
    37    15    29 1   
    38    18    27 1   
    39    19    28 1   
@<TRIPOS>SUBSTRUCTURE
     1 ZUQ         1 TEMP              0 ****  ****    0 ROOT
