@<TRIPOS>MOLECULE
ZVO
   23    25     1     0     0
SMALL
bcc


@<TRIPOS>ATOM
      1 C            0.0000     0.0000     0.0000 c3         1 ZVO       0.015600
      2 N            1.4650     0.0000     0.0000 na         1 ZVO       0.342600
      3 C1           2.1440     0.0000     1.1920 ca         1 ZVO       0.421800
      4 N1           3.7790    -0.0010     3.3960 nb         1 ZVO      -0.610000
      5 C2           3.5250    -0.0000     1.1260 ca         1 ZVO      -0.385600
      6 N2           1.6330    -0.0010     2.4190 nb         1 ZVO      -0.650000
      7 C3           4.3870    -0.0000     2.2060 ca         1 ZVO       0.326800
      8 N3           5.6380    -0.0010     1.6600 na         1 ZVO       0.324900
      9 C4           2.4600    -0.0010     3.4610 ca         1 ZVO       0.697900
     10 N4           2.1590    -0.0040    -1.2190 nc         1 ZVO      -0.417800
     11 C5           5.5730     0.0010     0.2770 cc         1 ZVO      -0.218100
     12 C6           4.2860     0.0010    -0.1210 cd         1 ZVO      -0.242300
     13 C7           3.4620    -0.0040    -1.3430 cd         1 ZVO       0.149200
     14 H           -0.3610     0.8830     0.5140 h1         1 ZVO       0.040367
     15 HA          -0.3610    -0.8860     0.5070 h1         1 ZVO       0.040367
     16 HB          -0.3610     0.0040    -1.0210 h1         1 ZVO       0.040367
     17 HN3          6.4880    -0.0020     2.1880 hn         1 ZVO       0.139700
     18 H4           2.0130    -0.0010     4.4480 h5         1 ZVO       0.016100
     19 H5           6.4290     0.0030    -0.3870 h4         1 ZVO       0.145000
     20 HN5          3.3450    -0.0130    -3.3060 hn         1 ZVO       0.207133
     21 HN5A         4.6270    -0.8250    -2.6980 hn         1 ZVO       0.207133
     22 N5           4.0560    -0.0080    -2.6010 nz         1 ZVO       0.203700
     23 H53          4.6230     0.8100    -2.7050 hn         1 ZVO       0.207133
@<TRIPOS>BOND
     1     1     2 1   
     2     1    14 1   
     3     1    15 1   
     4     1    16 1   
     5     2     3 1   
     6     2    10 1   
     7     3     5 ar  
     8     3     6 ar  
     9     4     7 ar  
    10     4     9 ar  
    11     5     7 ar  
    12     5    12 1   
    13     6     9 ar  
    14     7     8 1   
    15     8    11 1   
    16     8    17 1   
    17     9    18 1   
    18    10    13 2   
    19    11    12 2   
    20    11    19 1   
    21    12    13 1   
    22    13    22 1   
    23    20    22 1   
    24    21    22 1   
    25    22    23 1   
@<TRIPOS>SUBSTRUCTURE
     1 ZVO         1 TEMP              0 ****  ****    0 ROOT
