@<TRIPOS>MOLECULE
molecule
   52    54     1     0     0
SMALL
bcc


@<TRIPOS>ATOM
      1 FAE          0.0000     0.0000     0.0000 f          1 ZVS      -0.216633
      2 CBF          1.3990     0.0000     0.0000 c3         1 ZVS       0.685200
      3 FAF          1.8660     0.0000     1.3180 f          1 ZVS      -0.216633
      4 FAG          1.8650    -1.1420    -0.6600 f          1 ZVS      -0.216633
      5 CBA          1.9020     1.2310    -0.7100 ca         1 ZVS      -0.125300
      6 CAK          1.0070     2.1400    -1.2350 ca         1 ZVS      -0.095000
      7 CAI          1.4660     3.2700    -1.8880 ca         1 ZVS      -0.111000
      8 CAH          2.8250     3.4970    -2.0190 ca         1 ZVS      -0.110000
      9 CAJ          3.7310     2.5960    -1.4990 ca         1 ZVS      -0.107000
     10 CAZ          3.2740     1.4560    -0.8350 ca         1 ZVS      -0.101600
     11 CAW          4.2390     0.4890    -0.2690 c          1 ZVS       0.668700
     12 OAC          3.8370    -0.5050     0.3040 o          1 ZVS      -0.597100
     13 NAT          5.5630     0.7090    -0.3900 ns         1 ZVS      -0.570900
     14 CBD          6.5190    -0.2490     0.1700 c3         1 ZVS       0.114400
     15 CAA          6.7620    -1.3750    -0.8380 c3         1 ZVS      -0.104100
     16 CBC          7.8190     0.4530     0.4630 cc         1 ZVS       0.346800
     17 NBE          8.5680     0.3290     1.6010 na         1 ZVS      -0.305700
     18 CAB          8.2720    -0.5050     2.7700 c3         1 ZVS       0.029600
     19 NAS          8.4420     1.2860    -0.3220 nd         1 ZVS      -0.350000
     20 NAR          9.5220     1.6970     0.2400 nd         1 ZVS      -0.362000
     21 CBB          9.6490     1.1430     1.4230 cc         1 ZVS       0.471800
     22 SAV         10.9700     1.3960     2.5630 ss         1 ZVS      -0.278400
     23 CAQ         11.9740     2.5730     1.6230 c3         1 ZVS      -0.001300
     24 CAP         13.2130     2.9500     2.4380 c3         1 ZVS       0.149400
     25 OAU         14.0060     3.8790     1.6960 os         1 ZVS      -0.322900
     26 CAY         15.1510     4.3190     2.2830 ca         1 ZVS       0.128100
     27 CAN         15.9680     5.2220     1.6190 ca         1 ZVS      -0.164000
     28 CAO         15.5010     3.8690     3.5470 ca         1 ZVS      -0.164000
     29 CAM         16.6640     4.3170     4.1420 ca         1 ZVS      -0.129000
     30 CAX         17.4820     5.2150     3.4760 ca         1 ZVS       0.096900
     31 FAD         18.6200     5.6510     4.0590 f          1 ZVS      -0.141900
     32 CAL         17.1310     5.6680     2.2160 ca         1 ZVS      -0.129000
     33 HAK         -0.0580     1.9690    -1.1360 ha         1 ZVS       0.156000
     34 HAI          0.7580     3.9810    -2.2980 ha         1 ZVS       0.142000
     35 HAH          3.1780     4.3820    -2.5330 ha         1 ZVS       0.141000
     36 HAJ          4.7940     2.7750    -1.6010 ha         1 ZVS       0.141000
     37 HAT          5.8930     1.5380    -0.8440 hn         1 ZVS       0.335500
     38 HBD          6.1180    -0.6650     1.0860 h1         1 ZVS       0.083700
     39 HAA1         7.6950    -1.8730    -0.6040 hc         1 ZVS       0.054033
     40 HAA2         6.8150    -0.9600    -1.8370 hc         1 ZVS       0.054033
     41 HAA3         5.9490    -2.0880    -0.7850 hc         1 ZVS       0.054033
     42 HAB1         7.2930    -0.2480     3.1580 h1         1 ZVS       0.065033
     43 HAB2         8.2820    -1.5490     2.4810 h1         1 ZVS       0.065033
     44 HAB3         9.0200    -0.3340     3.5340 h1         1 ZVS       0.065033
     45 HAQ1        12.2800     2.1200     0.6880 h1         1 ZVS       0.095200
     46 HAQ2        11.3910     3.4630     1.4190 h1         1 ZVS       0.095200
     47 HAP1        13.7960     2.0600     2.6410 h1         1 ZVS       0.045700
     48 HAP2        12.9060     3.4030     3.3730 h1         1 ZVS       0.045700
     49 HAN         15.6950     5.5780     0.6330 ha         1 ZVS       0.146000
     50 HAO         14.8610     3.1670     4.0680 ha         1 ZVS       0.146000
     51 HAL         17.7700     6.3720     1.6970 ha         1 ZVS       0.148500
     52 HAM         16.9370     3.9650     5.1300 ha         1 ZVS       0.148500
@<TRIPOS>BOND
     1     1     2 1
     2     2     3 1
     3     2     4 1
     4     2     5 1
     5     5     6 ar
     6     5    10 ar
     7     6     7 ar
     8     7     8 ar
     9     8     9 ar
    10     9    10 ar
    11    10    11 1
    12    11    12 2
    13    11    13 1
    14    13    14 1
    15    14    15 1
    16    14    16 1
    17    16    17 1
    18    16    19 2
    19    17    18 1
    20    17    21 1
    21    19    20 1
    22    20    21 2
    23    21    22 1
    24    22    23 1
    25    23    24 1
    26    24    25 1
    27    25    26 1
    28    26    27 ar
    29    26    28 ar
    30    27    32 ar
    31    28    29 ar
    32    29    30 ar
    33    30    31 1
    34    30    32 ar
    35     6    33 1
    36     7    34 1
    37     8    35 1
    38     9    36 1
    39    13    37 1
    40    14    38 1
    41    15    39 1
    42    15    40 1
    43    15    41 1
    44    18    42 1
    45    18    43 1
    46    18    44 1
    47    23    45 1
    48    23    46 1
    49    24    47 1
    50    24    48 1
    51    27    49 1
    52    28    50 1
    53    32    51 1
    54    29    52 1
@<TRIPOS>SUBSTRUCTURE
     1 ZVS         1 TEMP              0 ****  ****    0 ROOT
