@<TRIPOS>MOLECULE
molecule
   49    51     1     0     0
SMALL
bcc


@<TRIPOS>ATOM
      1 Cl           0.0000     0.0000     0.0000 cl         1 ZVT      -0.061400
      2 CAX          1.7360     0.0000     0.0000 ca         1 ZVT       0.080400
      3 CAH          2.4290     0.0000     1.1960 ca         1 ZVT      -0.136000
      4 CAF          3.8120    -0.0000     1.1960 ca         1 ZVT      -0.096000
      5 CAG          4.5110    -0.0010     0.0010 ca         1 ZVT      -0.138000
      6 CAI          3.8330    -0.0010    -1.1990 ca         1 ZVT      -0.093000
      7 CAY          2.4370    -0.0070    -1.2090 ca         1 ZVT      -0.145600
      8 CAU          1.7030    -0.0140    -2.4910 c          1 ZVT       0.673700
      9 OAC          0.4880    -0.0140    -2.4970 o          1 ZVT      -0.597100
     10 NAR          2.3830    -0.0200    -3.6550 ns         1 ZVT      -0.576900
     11 CBB          1.6560    -0.0270    -4.9270 c3         1 ZVT       0.113400
     12 CAA          1.2930     1.4090    -5.3160 c3         1 ZVT      -0.104100
     13 CBA          2.5240    -0.6330    -5.9990 cc         1 ZVT       0.348800
     14 NBC          2.1370    -1.5570    -6.9300 na         1 ZVT      -0.305700
     15 CAB          0.8070    -2.1520    -7.0860 c3         1 ZVT       0.030600
     16 NAQ          3.7820    -0.3690    -6.2150 nd         1 ZVT      -0.350000
     17 NAP          4.2150    -1.0630    -7.2070 nd         1 ZVT      -0.361000
     18 CAZ          3.2460    -1.8100    -7.6850 cc         1 ZVT       0.470800
     19 SAT          3.3570    -2.9250    -9.0450 ss         1 ZVT      -0.278400
     20 CAO          5.0960    -2.7000    -9.4940 c3         1 ZVT      -0.001300
     21 CAN          5.4330    -3.5950   -10.6880 c3         1 ZVT       0.149400
     22 OAS          6.8060    -3.4180   -11.0430 os         1 ZVT      -0.322900
     23 CAW          7.2710    -4.1460   -12.0930 ca         1 ZVT       0.128100
     24 CAL          8.5940    -4.0220   -12.4920 ca         1 ZVT      -0.164000
     25 CAM          6.4250    -5.0170   -12.7630 ca         1 ZVT      -0.164000
     26 CAK          6.8980    -5.7570   -13.8290 ca         1 ZVT      -0.129000
     27 CAV          8.2180    -5.6280   -14.2290 ca         1 ZVT       0.096900
     28 FAD          8.6800    -6.3520   -15.2720 f          1 ZVT      -0.141900
     29 CAJ          9.0650    -4.7640   -13.5580 ca         1 ZVT      -0.129000
     30 HAH          1.8890     0.0000     2.1340 ha         1 ZVT       0.149000
     31 HAF          4.3510    -0.0000     2.1360 ha         1 ZVT       0.139000
     32 HAG          5.5950     0.0010     0.0100 ha         1 ZVT       0.139000
     33 HAI          4.3830    -0.0040    -2.1330 ha         1 ZVT       0.138000
     34 HAR          3.3830    -0.0500    -3.6510 hn         1 ZVT       0.334500
     35 HBB          0.7500    -0.6120    -4.8220 h1         1 ZVT       0.080700
     36 HAA1         1.0490     1.4460    -6.3700 hc         1 ZVT       0.053033
     37 HAA2         2.1360     2.0600    -5.1170 hc         1 ZVT       0.053033
     38 HAA3         0.4390     1.7350    -4.7350 hc         1 ZVT       0.053033
     39 HAB1         0.8460    -2.9310    -7.8380 h1         1 ZVT       0.064367
     40 HAB2         0.4900    -2.5780    -6.1420 h1         1 ZVT       0.064367
     41 HAB3         0.1030    -1.3880    -7.3930 h1         1 ZVT       0.064367
     42 HAO1         5.7240    -2.9690    -8.6530 h1         1 ZVT       0.095200
     43 HAO2         5.2700    -1.6640    -9.7580 h1         1 ZVT       0.095200
     44 HAN1         5.2590    -4.6310   -10.4240 h1         1 ZVT       0.045200
     45 HAN2         4.8050    -3.3260   -11.5290 h1         1 ZVT       0.045200
     46 HAL          9.2580    -3.3460   -11.9670 ha         1 ZVT       0.146000
     47 HAM          5.3930    -5.1170   -12.4510 ha         1 ZVT       0.146000
     48 HAJ         10.0970    -4.6660   -13.8710 ha         1 ZVT       0.148500
     49 HAK          6.2370    -6.4370   -14.3530 ha         1 ZVT       0.148500
@<TRIPOS>BOND
     1     1     2 1
     2     2     3 ar
     3     2     7 ar
     4     3     4 ar
     5     4     5 ar
     6     5     6 ar
     7     6     7 ar
     8     7     8 1
     9     8     9 2
    10     8    10 1
    11    10    11 1
    12    11    12 1
    13    11    13 1
    14    13    14 1
    15    13    16 2
    16    14    15 1
    17    14    18 1
    18    16    17 1
    19    17    18 2
    20    18    19 1
    21    19    20 1
    22    20    21 1
    23    21    22 1
    24    22    23 1
    25    23    24 ar
    26    23    25 ar
    27    24    29 ar
    28    25    26 ar
    29    26    27 ar
    30    27    28 1
    31    27    29 ar
    32     3    30 1
    33     4    31 1
    34     5    32 1
    35     6    33 1
    36    10    34 1
    37    11    35 1
    38    12    36 1
    39    12    37 1
    40    12    38 1
    41    15    39 1
    42    15    40 1
    43    15    41 1
    44    20    42 1
    45    20    43 1
    46    21    44 1
    47    21    45 1
    48    24    46 1
    49    25    47 1
    50    29    48 1
    51    26    49 1
@<TRIPOS>SUBSTRUCTURE
     1 ZVT         1 TEMP              0 ****  ****    0 ROOT
