@<TRIPOS>MOLECULE
molecule
   48    50     1     0     0
SMALL
bcc


@<TRIPOS>ATOM
      1 FAE          0.0000     0.0000     0.0000 f          1 ZVU      -0.216300
      2 CBD          1.3990     0.0000     0.0000 c3         1 ZVU       0.685200
      3 FAF          1.8660     0.0000     1.3190 f          1 ZVU      -0.216300
      4 FAG          1.8640    -1.1430    -0.6590 f          1 ZVU      -0.216300
      5 CAY          1.9010     1.2300    -0.7120 ca         1 ZVU      -0.125300
      6 CAK          1.0050     2.1400    -1.2360 ca         1 ZVU      -0.094000
      7 CAI          1.4650     3.2690    -1.8890 ca         1 ZVU      -0.111000
      8 CAH          2.8230     3.4950    -2.0210 ca         1 ZVU      -0.111000
      9 CAJ          3.7300     2.5940    -1.5010 ca         1 ZVU      -0.107000
     10 CAX          3.2730     1.4560    -0.8350 ca         1 ZVU      -0.101600
     11 CAU          4.2380     0.4880    -0.2700 c          1 ZVU       0.668700
     12 OAC          3.8370    -0.5050     0.3040 o          1 ZVU      -0.597100
     13 NAS          5.5620     0.7090    -0.3930 ns         1 ZVU      -0.570900
     14 CBB          6.5180    -0.2490     0.1680 c3         1 ZVU       0.114400
     15 CAA          6.7620    -1.3750    -0.8390 c3         1 ZVU      -0.104100
     16 CBA          7.8200     0.4520     0.4620 cc         1 ZVU       0.342800
     17 NBC          8.5680     0.3290     1.5990 na         1 ZVU      -0.304700
     18 CAB          8.2720    -0.5030     2.7670 c3         1 ZVU       0.029600
     19 NAR          8.4420     1.2850    -0.3250 nd         1 ZVU      -0.352000
     20 NAQ          9.5220     1.6980     0.2360 nd         1 ZVU      -0.369000
     21 CAZ          9.6500     1.1430     1.4190 cc         1 ZVU       0.468800
     22 SAT         10.9700     1.3970     2.5580 ss         1 ZVU      -0.277400
     23 CAP         11.9740     2.5740     1.6190 c3         1 ZVU       0.058000
     24 CAW         13.1950     2.9450     2.4200 ca         1 ZVU      -0.106300
     25 CAN         14.3560     2.2070     2.2920 ca         1 ZVU      -0.084000
     26 CAO         13.1540     4.0280     3.2780 ca         1 ZVU      -0.084000
     27 CAM         14.2730     4.3710     4.0130 ca         1 ZVU      -0.168000
     28 CAV         15.4350     3.6290     3.8900 ca         1 ZVU       0.142900
     29 FAD         16.5300     3.9630     4.6080 f          1 ZVU      -0.137900
     30 CAL         15.4760     2.5480     3.0270 ca         1 ZVU      -0.168000
     31 HAK         -0.0600     1.9690    -1.1360 ha         1 ZVU       0.156000
     32 HAI          0.7580     3.9800    -2.3000 ha         1 ZVU       0.142000
     33 HAH          3.1760     4.3810    -2.5360 ha         1 ZVU       0.141000
     34 HAJ          4.7930     2.7730    -1.6020 ha         1 ZVU       0.141000
     35 HAS          5.8910     1.5440    -0.8360 hn         1 ZVU       0.335500
     36 HBB          6.1180    -0.6650     1.0840 h1         1 ZVU       0.082700
     37 HAA1         7.6890    -1.8810    -0.5980 hc         1 ZVU       0.053700
     38 HAA2         5.9430    -2.0830    -0.7960 hc         1 ZVU       0.053700
     39 HAA3         6.8270    -0.9590    -1.8380 hc         1 ZVU       0.053700
     40 HAB1         9.0170    -0.3280     3.5340 h1         1 ZVU       0.065033
     41 HAB2         8.2880    -1.5480     2.4800 h1         1 ZVU       0.065033
     42 HAB3         7.2910    -0.2490     3.1520 h1         1 ZVU       0.065033
     43 HAP1        11.3910     3.4650     1.4150 h1         1 ZVU       0.087200
     44 HAP2        12.2800     2.1220     0.6830 h1         1 ZVU       0.087200
     45 HAN         14.3880     1.3610     1.6170 ha         1 ZVU       0.143500
     46 HAO         12.2440     4.6090     3.3740 ha         1 ZVU       0.143500
     47 HAL         16.3850     1.9670     2.9280 ha         1 ZVU       0.149000
     48 HAM         14.2410     5.2200     4.6850 ha         1 ZVU       0.149000
@<TRIPOS>BOND
     1     1     2 1
     2     2     3 1
     3     2     4 1
     4     2     5 1
     5     5     6 ar
     6     5    10 ar
     7     6     7 ar
     8     7     8 ar
     9     8     9 ar
    10     9    10 ar
    11    10    11 1
    12    11    12 2
    13    11    13 1
    14    13    14 1
    15    14    15 1
    16    14    16 1
    17    16    17 1
    18    16    19 2
    19    17    18 1
    20    17    21 1
    21    19    20 1
    22    20    21 2
    23    21    22 1
    24    22    23 1
    25    23    24 1
    26    24    25 ar
    27    24    26 ar
    28    25    30 ar
    29    26    27 ar
    30    27    28 ar
    31    28    29 1
    32    28    30 ar
    33     6    31 1
    34     7    32 1
    35     8    33 1
    36     9    34 1
    37    13    35 1
    38    14    36 1
    39    15    37 1
    40    15    38 1
    41    15    39 1
    42    18    40 1
    43    18    41 1
    44    18    42 1
    45    23    43 1
    46    23    44 1
    47    25    45 1
    48    26    46 1
    49    30    47 1
    50    27    48 1
@<TRIPOS>SUBSTRUCTURE
     1 ZVU         1 TEMP              0 ****  ****    0 ROOT
