@<TRIPOS>MOLECULE
ZVV
   55    57     1     0     0
SMALL
bcc


@<TRIPOS>ATOM
      1 FAE          0.0000     0.0000     0.0000 f          1 ZVV      -0.206633
      2 CBF          1.3990     0.0000     0.0000 c3         1 ZVV       0.660200
      3 FAF          1.8650     0.0000     1.3190 f          1 ZVV      -0.206633
      4 FAG          1.8650    -1.1430    -0.6580 f          1 ZVV      -0.206633
      5 CBA          1.9020     1.2300    -0.7100 ca         1 ZVV      -0.146300
      6 CAO          1.0060     2.1400    -1.2350 ca         1 ZVV      -0.060000
      7 CAK          1.4660     3.2690    -1.8870 ca         1 ZVV      -0.084000
      8 CAJ          2.8250     3.4960    -2.0180 ca         1 ZVV      -0.075000
      9 CAN          3.7300     2.5940    -1.4980 ca         1 ZVV      -0.089000
     10 CAZ          3.2730     1.4550    -0.8330 ca         1 ZVV      -0.096600
     11 CAW          4.2380     0.4890    -0.2660 c          1 ZVV       0.587700
     12 OAD          3.8370    -0.5040     0.3070 o          1 ZVV      -0.643100
     13 NAT          5.5620     0.7100    -0.3870 ns         1 ZVV      -0.180900
     14 CBD          6.5190    -0.2480     0.1740 c3         1 ZVV       0.029400
     15 CAB          6.7630    -1.3740    -0.8330 c3         1 ZVV      -0.014100
     16 CBC          7.8190     0.4530     0.4680 cc         1 ZVV       0.148800
     17 NBE          8.5670     0.3300     1.6060 na         1 ZVV       0.187300
     18 CAC          8.2700    -0.5030     2.7750 c3         1 ZVV      -0.016400
     19 NAS          8.4410     1.2860    -0.3170 nd         1 ZVV      -0.313000
     20 NAR          9.5220     1.6990     0.2450 nd         1 ZVV      -0.339000
     21 CBB          9.6490     1.1440     1.4280 cc         1 ZVV       0.313800
     22 SAV         10.9680     1.3990     2.5680 ss         1 ZVV      -0.377400
     23 CAQ         11.9720     2.5760     1.6300 c3         1 ZVV       0.089700
     24 CAP         13.2110     2.9530     2.4450 c3         1 ZVV       0.215400
     25 OAU         14.0040     3.8820     1.7030 os         1 ZVV      -0.299900
     26 CAY         15.1480     4.3220     2.2900 ca         1 ZVV       0.149100
     27 CAX         15.9660     5.2260     1.6270 ca         1 ZVV      -0.122300
     28 CAA         15.5860     5.7210     0.2550 c3         1 ZVV       0.073200
     29 CAM         15.4970     3.8720     3.5550 ca         1 ZVV      -0.207000
     30 CAI         16.6610     4.3210     4.1490 ca         1 ZVV      -0.063000
     31 CAH         17.4770     5.2180     3.4840 ca         1 ZVV      -0.138000
     32 CAL         17.1290     5.6710     2.2250 ca         1 ZVV      -0.064000
     33 HAO         -0.0590     1.9680    -1.1360 ha         1 ZVV       0.126000
     34 HAK          0.7580     3.9800    -2.2970 ha         1 ZVV       0.110000
     35 HAJ          3.1780     4.3820    -2.5320 ha         1 ZVV       0.110000
     36 HAN          4.7940     2.7740    -1.5980 ha         1 ZVV       0.115000
     37 HAT          5.8920     1.5440    -0.8310 hn         1 ZVV       0.198500
     38 HBD          6.1170    -0.6650     1.0900 h1         1 ZVV       0.052700
     39 HAB1         6.8250    -0.9580    -1.8320 hc         1 ZVV       0.019367
     40 HAB2         5.9450    -2.0830    -0.7880 hc         1 ZVV       0.019367
     41 HAB3         7.6910    -1.8780    -0.5940 hc         1 ZVV       0.019367
     42 HAC1         7.2890    -0.2490     3.1590 h1         1 ZVV       0.037367
     43 HAC2         9.0140    -0.3280     3.5420 h1         1 ZVV       0.037367
     44 HAC3         8.2860    -1.5470     2.4870 h1         1 ZVV       0.037367
     45 HAQ1        12.2790     2.1230     0.6950 h1         1 ZVV       0.063200
     46 HAQ2        11.3890     3.4660     1.4260 h1         1 ZVV       0.063200
     47 HAP1        12.9040     3.4070     3.3800 h1         1 ZVV       0.012700
     48 HAP2        13.7940     2.0630     2.6490 h1         1 ZVV       0.012700
     49 HAM         14.8580     3.1700     4.0770 ha         1 ZVV       0.118000
     50 HAA1        16.3400     6.4130    -0.1000 hc         1 ZVV       0.009033
     51 HAA2        15.5180     4.8810    -0.4260 hc         1 ZVV       0.009033
     52 HAA3        14.6280     6.2240     0.3050 hc         1 ZVV       0.009033
     53 HAL         17.7690     6.3750     1.7070 ha         1 ZVV       0.107000
     54 HAI         16.9360     3.9690     5.1360 ha         1 ZVV       0.101000
     55 HAH         18.3900     5.5680     3.9510 ha         1 ZVV       0.105000
@<TRIPOS>BOND
     1     1     2 1   
     2     2     3 1   
     3     2     4 1   
     4     2     5 1   
     5     5     6 ar  
     6     5    10 ar  
     7     6     7 ar  
     8     6    33 1   
     9     7     8 ar  
    10     7    34 1   
    11     8     9 ar  
    12     8    35 1   
    13     9    10 ar  
    14     9    36 1   
    15    10    11 1   
    16    11    12 2   
    17    11    13 1   
    18    13    14 1   
    19    13    37 1   
    20    14    15 1   
    21    14    16 1   
    22    14    38 1   
    23    15    39 1   
    24    15    40 1   
    25    15    41 1   
    26    16    17 1   
    27    16    19 2   
    28    17    18 1   
    29    17    21 1   
    30    18    42 1   
    31    18    43 1   
    32    18    44 1   
    33    19    20 1   
    34    20    21 2   
    35    21    22 1   
    36    22    23 1   
    37    23    24 1   
    38    23    45 1   
    39    23    46 1   
    40    24    25 1   
    41    24    47 1   
    42    24    48 1   
    43    25    26 1   
    44    26    27 ar  
    45    26    29 ar  
    46    27    28 1   
    47    27    32 ar  
    48    28    50 1   
    49    28    51 1   
    50    28    52 1   
    51    29    30 ar  
    52    29    49 1   
    53    30    31 ar  
    54    30    54 1   
    55    31    32 ar  
    56    31    55 1   
    57    32    53 1   
@<TRIPOS>SUBSTRUCTURE
     1 ZVV         1 TEMP              0 ****  ****    0 ROOT
