@<TRIPOS>MOLECULE
molecule
   62    65     1     0     0
SMALL
bcc


@<TRIPOS>ATOM
      1 F7           0.0000     0.0000     0.0000 f          1 ZVW      -0.141900
      2 C2           1.3500     0.0000     0.0000 ca         1 ZVW       0.096900
      3 C1           2.0420     0.0000     1.2000 ca         1 ZVW      -0.129000
      4 C6           3.4240     0.0010     1.2010 ca         1 ZVW      -0.164000
      5 C3           2.0420    -0.0040    -1.1990 ca         1 ZVW      -0.129000
      6 C4           3.4240    -0.0040    -1.2010 ca         1 ZVW      -0.164000
      7 C5           4.1180     0.0020    -0.0000 ca         1 ZVW       0.128100
      8 O8           5.4780     0.0030    -0.0000 os         1 ZVW      -0.322900
      9 C9           6.1260     0.0040    -1.2730 c3         1 ZVW       0.149400
     10 C10          7.6420     0.0060    -1.0730 c3         1 ZVW      -0.000300
     11 S11          8.4640     0.0080    -2.6870 ss         1 ZVW      -0.284400
     12 C12         10.1500     0.0090    -2.1720 cc         1 ZVW       0.475800
     13 N13         10.5870     0.0070    -0.9340 nd         1 ZVW      -0.361000
     14 N14         11.8720     0.0080    -0.9260 nd         1 ZVW      -0.350000
     15 N16         11.2460     0.0040    -2.9840 na         1 ZVW      -0.299700
     16 C17         11.2620    -0.0010    -4.4490 c3         1 ZVW       0.094600
     17 C18         11.2690     1.4180    -4.9560 ca         1 ZVW      -0.151300
     18 C19         12.4690     2.0670    -5.1760 ca         1 ZVW      -0.079500
     19 C20         12.4760     3.3690    -5.6410 ca         1 ZVW      -0.166000
     20 C21         11.2800     4.0220    -5.8880 ca         1 ZVW       0.149900
     21 F24         11.2850     5.2940    -6.3430 f          1 ZVW      -0.134900
     22 C22         10.0780     3.3700    -5.6680 ca         1 ZVW      -0.166000
     23 C23         10.0740     2.0670    -5.2080 ca         1 ZVW      -0.079500
     24 C15         12.3280     0.0100    -2.1470 cc         1 ZVW       0.347800
     25 C25         13.7770     0.0120    -2.5600 c3         1 ZVW       0.113400
     26 C26         14.3710    -1.3800    -2.3410 c3         1 ZVW      -0.106100
     27 N27         14.5130     0.9890    -1.7530 ns         1 ZVW      -0.568900
     28 C28         15.6470     1.5400    -2.2300 c          1 ZVW       0.669700
     29 O29         16.0580     1.2260    -3.3300 o          1 ZVW      -0.602100
     30 C30         16.3900     2.5250    -1.4160 ca         1 ZVW      -0.102600
     31 C35         17.5640     3.0970    -1.9080 ca         1 ZVW      -0.125300
     32 C36         18.0800     2.7120    -3.2710 c3         1 ZVW       0.685200
     33 F38         19.2610     3.4130    -3.5390 f          1 ZVW      -0.216633
     34 F37         18.3370     1.3370    -3.3000 f          1 ZVW      -0.216633
     35 F39         17.1200     3.0270    -4.2390 f          1 ZVW      -0.216633
     36 C31         15.9160     2.8920    -0.1550 ca         1 ZVW      -0.106000
     37 C32         16.6140     3.8130     0.5990 ca         1 ZVW      -0.110000
     38 C33         17.7800     4.3720     0.1080 ca         1 ZVW      -0.110000
     39 C34         18.2520     4.0170    -1.1430 ca         1 ZVW      -0.095000
     40 H1           1.5000    -0.0010     2.1380 ha         1 ZVW       0.149000
     41 H3           1.4990    -0.0090    -2.1370 ha         1 ZVW       0.149000
     42 H6           3.9650     0.0030     2.1390 ha         1 ZVW       0.146000
     43 H4           3.9650    -0.0050    -2.1400 ha         1 ZVW       0.146000
     44 H91C         5.8340     0.8890    -1.8260 h1         1 ZVW       0.044700
     45 H92C         5.8360    -0.8800    -1.8270 h1         1 ZVW       0.044700
     46 H101         7.9330     0.8900    -0.5190 h1         1 ZVW       0.095700
     47 H102         7.9350    -0.8790    -0.5200 h1         1 ZVW       0.095700
     48 H171        10.3810    -0.5120    -4.8170 h1         1 ZVW       0.078200
     49 H172        12.1500    -0.5130    -4.7980 h1         1 ZVW       0.078200
     50 H19         13.4040     1.5550    -4.9830 ha         1 ZVW       0.146000
     51 H23          9.1340     1.5570    -5.0360 ha         1 ZVW       0.146000
     52 H20         13.4170     3.8780    -5.8140 ha         1 ZVW       0.153500
     53 H22          9.1420     3.8790    -5.8630 ha         1 ZVW       0.153500
     54 H25         13.8540     0.2780    -3.6070 h1         1 ZVW       0.080700
     55 H261        14.5710    -1.5270    -1.2860 hc         1 ZVW       0.054367
     56 H262        15.2960    -1.4710    -2.8990 hc         1 ZVW       0.054367
     57 H263        13.6690    -2.1310    -2.6830 hc         1 ZVW       0.054367
     58 H27         14.1650     1.2600    -0.8550 hn         1 ZVW       0.336500
     59 H31         15.0030     2.4540     0.2300 ha         1 ZVW       0.141000
     60 H34         19.1650     4.4600    -1.5230 ha         1 ZVW       0.157000
     61 H32         16.2490     4.0970     1.5780 ha         1 ZVW       0.142000
     62 H33         18.3240     5.0940     0.7040 ha         1 ZVW       0.142000
@<TRIPOS>BOND
     1     1     2 1
     2     2     3 ar
     3     2     5 ar
     4     3     4 ar
     5     4     7 ar
     6     5     6 ar
     7     6     7 ar
     8     7     8 1
     9     8     9 1
    10     9    10 1
    11    10    11 1
    12    11    12 1
    13    12    13 2
    14    12    15 1
    15    13    14 1
    16    14    24 2
    17    15    16 1
    18    15    24 1
    19    16    17 1
    20    17    18 ar
    21    17    23 ar
    22    18    19 ar
    23    19    20 ar
    24    20    21 1
    25    20    22 ar
    26    22    23 ar
    27    24    25 1
    28    25    26 1
    29    25    27 1
    30    27    28 1
    31    28    29 2
    32    28    30 1
    33    30    31 ar
    34    30    36 ar
    35    31    32 1
    36    31    39 ar
    37    32    33 1
    38    32    34 1
    39    32    35 1
    40    36    37 ar
    41    37    38 ar
    42    38    39 ar
    43     3    40 1
    44     5    41 1
    45     4    42 1
    46     6    43 1
    47     9    44 1
    48     9    45 1
    49    10    46 1
    50    10    47 1
    51    16    48 1
    52    16    49 1
    53    18    50 1
    54    23    51 1
    55    19    52 1
    56    22    53 1
    57    25    54 1
    58    26    55 1
    59    26    56 1
    60    26    57 1
    61    27    58 1
    62    36    59 1
    63    39    60 1
    64    37    61 1
    65    38    62 1
@<TRIPOS>SUBSTRUCTURE
     1 ZVW         1 TEMP              0 ****  ****    0 ROOT
