@<TRIPOS>MOLECULE
ZVX
   49    51     1     0     0
SMALL
bcc


@<TRIPOS>ATOM
      1 F9           0.0000     0.0000     0.0000 f          1 ZVX      -0.128900
      2 C6           1.3510     0.0000     0.0000 ca         1 ZVX       0.063900
      3 C7           2.0430     0.0000     1.1990 ca         1 ZVX      -0.089000
      4 C8           3.4250     0.0000     1.2000 ca         1 ZVX      -0.149500
      5 C5           2.0420    -0.0070    -1.2000 ca         1 ZVX      -0.089000
      6 C4           3.4240    -0.0070    -1.2030 ca         1 ZVX      -0.149500
      7 C3           4.1180    -0.0000    -0.0010 ca         1 ZVX       0.140100
      8 O2           5.4780    -0.0000    -0.0010 os         1 ZVX      -0.300900
      9 C1           6.1260    -0.0010    -1.2750 c3         1 ZVX       0.216400
     10 C10          7.6440    -0.0000    -1.0740 c3         1 ZVX       0.090700
     11 S11          8.4640    -0.0010    -2.6880 ss         1 ZVX      -0.378400
     12 C12         10.1500    -0.0000    -2.1730 cc         1 ZVX       0.312800
     13 N13         10.5870     0.0000    -0.9360 nd         1 ZVX      -0.338000
     14 N14         11.8730     0.0000    -0.9280 nd         1 ZVX      -0.309000
     15 N16         11.2460    -0.0070    -2.9860 na         1 ZVX       0.188300
     16 C17         11.2620    -0.0130    -4.4500 c3         1 ZVX      -0.017400
     17 C15         12.3280    -0.0010    -2.1490 cc         1 ZVX       0.150800
     18 C18         13.7770    -0.0010    -2.5610 c3         1 ZVX       0.028400
     19 C19         14.3710    -1.3930    -2.3420 c3         1 ZVX      -0.015100
     20 N20         14.5140     0.9770    -1.7560 ns         1 ZVX      -0.171900
     21 C21         15.6480     1.5260    -2.2340 c          1 ZVX       0.605700
     22 O28         16.0590     1.2100    -3.3340 o          1 ZVX      -0.634100
     23 C22         16.3900     2.5100    -1.4230 ca         1 ZVX      -0.207600
     24 C27         16.1010     3.8740    -1.5340 ca         1 ZVX       0.166400
     25 F30         15.1390     4.2970    -2.3850 f          1 ZVX      -0.118900
     26 C23         17.3840     2.0840    -0.5350 ca         1 ZVX       0.166400
     27 F29         17.6680     0.7690    -0.4160 f          1 ZVX      -0.118900
     28 C24         18.0730     3.0130     0.2220 ca         1 ZVX      -0.149500
     29 C25         17.7840     4.3600     0.1020 ca         1 ZVX      -0.033000
     30 C26         16.8010     4.7890    -0.7700 ca         1 ZVX      -0.149500
     31 H7           1.5000     0.0000     2.1360 ha         1 ZVX       0.118500
     32 H5           1.4990    -0.0120    -2.1370 ha         1 ZVX       0.118500
     33 H8           3.9660     0.0030     2.1380 ha         1 ZVX       0.122500
     34 H4           3.9640    -0.0100    -2.1410 ha         1 ZVX       0.122500
     35 H11C         5.8340     0.8830    -1.8290 h1         1 ZVX       0.012700
     36 H12C         5.8350    -0.8860    -1.8280 h1         1 ZVX       0.012700
     37 H101         7.9350     0.8850    -0.5210 h1         1 ZVX       0.063700
     38 H102         7.9350    -0.8840    -0.5200 h1         1 ZVX       0.063700
     39 H171        10.2700     0.2080    -4.8230 h1         1 ZVX       0.037033
     40 H172        11.5720    -0.9890    -4.8040 h1         1 ZVX       0.037033
     41 H173        11.9580     0.7370    -4.8070 h1         1 ZVX       0.037033
     42 H18         13.8540     0.2630    -3.6090 h1         1 ZVX       0.051700
     43 H191        14.8260    -1.4410    -1.3600 hc         1 ZVX       0.019367
     44 H192        15.1210    -1.5890    -3.0980 hc         1 ZVX       0.019367
     45 H193        13.5850    -2.1360    -2.4120 hc         1 ZVX       0.019367
     46 H20         14.1770     1.2350    -0.8500 hn         1 ZVX       0.197500
     47 H26         16.5790     5.8460    -0.8560 ha         1 ZVX       0.126000
     48 H24         18.8440     2.6850     0.9090 ha         1 ZVX       0.126000
     49 H25         18.3280     5.0820     0.6980 ha         1 ZVX       0.111000
@<TRIPOS>BOND
     1     1     2 1   
     2     2     3 ar  
     3     2     5 ar  
     4     3     4 ar  
     5     3    31 1   
     6     4     7 ar  
     7     4    33 1   
     8     5     6 ar  
     9     5    32 1   
    10     6     7 ar  
    11     6    34 1   
    12     7     8 1   
    13     8     9 1   
    14     9    10 1   
    15     9    35 1   
    16     9    36 1   
    17    10    11 1   
    18    10    37 1   
    19    10    38 1   
    20    11    12 1   
    21    12    13 2   
    22    12    15 1   
    23    13    14 1   
    24    14    17 2   
    25    15    16 1   
    26    15    17 1   
    27    16    39 1   
    28    16    40 1   
    29    16    41 1   
    30    17    18 1   
    31    18    19 1   
    32    18    20 1   
    33    18    42 1   
    34    19    43 1   
    35    19    44 1   
    36    19    45 1   
    37    20    21 1   
    38    20    46 1   
    39    21    22 2   
    40    21    23 1   
    41    23    24 ar  
    42    23    26 ar  
    43    24    25 1   
    44    24    30 ar  
    45    26    27 1   
    46    26    28 ar  
    47    28    29 ar  
    48    28    48 1   
    49    29    30 ar  
    50    29    49 1   
    51    30    47 1   
@<TRIPOS>SUBSTRUCTURE
     1 ZVX         1 TEMP              0 ****  ****    0 ROOT
