@<TRIPOS>MOLECULE
molecule
   55    58     1     0     0
SMALL
bcc


@<TRIPOS>ATOM
      1 NAA         10.1890    -0.0740    -9.7170 n1         1 ZVY      -0.397800
      2 OAB          0.0000     0.0000     0.0000 o          1 ZVY      -0.824800
      3 OAC          1.9460     0.0000     1.0460 o          1 ZVY      -0.824800
      4 CAE         11.6820    -7.3740    -3.5840 ca         1 ZVY      -0.303300
      5 CAF         10.9430    -7.2270    -2.4170 ca         1 ZVY      -0.098000
      6 CAG         11.8850    -6.2780    -4.3980 ca         1 ZVY       0.462200
      7 CAH         10.4330    -5.9780    -2.1120 ca         1 ZVY      -0.287300
      8 CAI          7.6510    -1.0490    -7.5360 ca         1 ZVY      -0.084000
      9 CAJ          8.7010     0.9850    -6.7490 ca         1 ZVY      -0.084000
     10 CAK          3.7950    -0.0010    -3.4050 ca         1 ZVY      -0.231000
     11 CAL          6.8130    -1.0380    -6.4440 ca         1 ZVY      -0.148500
     12 CAM          7.8660     0.9910    -5.6560 ca         1 ZVY      -0.148500
     13 CAN          4.6310    -0.0010    -4.5010 ca         1 ZVY      -0.074000
     14 CAO          5.7040    -0.0010    -1.9400 ca         1 ZVY      -0.188000
     15 CAP          8.2060    -2.3160    -2.1050 c3         1 ZVY       0.147300
     16 CAQ         10.0330    -1.2980    -3.3220 c3         1 ZVY       0.147300
     17 CAR          8.7120    -3.7040    -2.5050 c3         1 ZVY       0.165300
     18 CAS         10.5400    -2.6850    -3.7220 c3         1 ZVY       0.165300
     19 CAT          2.0950    -0.0010    -1.3060 c3         1 ZVY      -0.026600
     20 NAV         11.3820    -5.1000    -4.0850 nb         1 ZVY      -0.740000
     21 OAW          3.4990    -0.0000    -1.0450 os         1 ZVY      -0.266900
     22 CAX          1.3420     0.0000     0.0000 c          1 ZVY       0.894600
     23 CAY          8.6040    -0.0390    -7.6960 ca         1 ZVY      -0.025000
     24 CAZ          4.3270    -0.0010    -2.1230 ca         1 ZVY       0.174100
     25 CBA          6.9160    -0.0180    -5.4960 cp         1 ZVY       0.027000
     26 CBB          6.5460    -0.0120    -3.0320 ca         1 ZVY      -0.067300
     27 CBC         10.6760    -4.9180    -2.9790 ca         1 ZVY       0.638200
     28 CBD          6.0140    -0.0070    -4.3200 cp         1 ZVY      -0.130000
     29 NBE          8.5740    -1.3450    -3.1430 n3         1 ZVY      -0.682600
     30 NBF         10.1700    -3.6570    -2.6840 nh         1 ZVY      -0.731300
     31 HAF         10.5920    -7.9550    -1.6960 ha         1 ZVY       0.135000
     32 HAG         12.3770    -6.5550    -5.3230 h4         1 ZVY       0.019100
     33 HAH         10.1990    -5.8950    -1.0570 ha         1 ZVY       0.145000
     34 HAI          7.4060    -1.8150    -8.2620 ha         1 ZVY       0.138000
     35 HAJ          9.3130     1.8750    -6.6660 ha         1 ZVY       0.138000
     36 HAK          2.7240     0.0890    -3.5440 ha         1 ZVY       0.150000
     37 HAL          6.1280    -1.8160    -6.1290 ha         1 ZVY       0.146500
     38 HAM          7.7550     1.7890    -4.9320 ha         1 ZVY       0.146500
     39 HAN          4.2300     0.0560    -5.5060 ha         1 ZVY       0.123000
     40 HAO          6.1100    -0.0020    -0.9350 ha         1 ZVY       0.145000
     41 HAP          7.1240    -2.3290    -2.1580 h1         1 ZVY       0.049950
     42 HAPA         8.5790    -1.9090    -1.1730 h1         1 ZVY       0.049950
     43 HAQ         10.6180    -0.9620    -2.4750 h1         1 ZVY       0.049950
     44 HAQA        10.4460    -0.6860    -4.1150 h1         1 ZVY       0.049950
     45 HAR          8.1930    -3.9770    -1.5950 h1         1 ZVY       0.072950
     46 HARA         8.5390    -4.0480    -3.5180 h1         1 ZVY       0.072950
     47 HAS         10.1670    -3.2920    -4.5380 h1         1 ZVY       0.072950
     48 HASA        11.5480    -2.4270    -4.0230 h1         1 ZVY       0.072950
     49 HAT          1.3920     0.6930    -1.7520 h1         1 ZVY       0.045700
     50 HATA         2.1480    -0.8680    -1.9530 h1         1 ZVY       0.045700
     51 CAU          8.0390    -0.0130    -2.8310 c3         1 ZVY       0.159100
     52 HAE         11.8220    -8.4290    -3.7900 ha         1 ZVY       0.133000
     53 HAU          8.1150     0.8950    -3.4170 h1         1 ZVY       0.062700
     54 HAUA         7.9690     0.2800    -1.7910 h1         1 ZVY       0.062700
     55 CAD          9.4800    -0.0540    -8.8290 cg         1 ZVY       0.256800
@<TRIPOS>BOND
     1    55     1 3
     2    22     2 1
     3     3    22 1
     4    23    55 1
     5     5     4 ar
     6     4     6 ar
     7     4    52 1
     8     7     5 ar
     9     5    31 1
    10    20     6 ar
    11     6    32 1
    12     7    27 ar
    13     7    33 1
    14    11     8 ar
    15     8    23 ar
    16     8    34 1
    17    12     9 ar
    18    23     9 ar
    19     9    35 1
    20    24    10 ar
    21    10    13 ar
    22    10    36 1
    23    11    25 ar
    24    11    37 1
    25    25    12 ar
    26    12    38 1
    27    28    13 ar
    28    13    39 1
    29    14    26 ar
    30    14    24 ar
    31    14    40 1
    32    29    15 1
    33    15    17 1
    34    15    41 1
    35    15    42 1
    36    16    18 1
    37    16    29 1
    38    16    43 1
    39    16    44 1
    40    30    17 1
    41    17    45 1
    42    17    46 1
    43    18    30 1
    44    18    47 1
    45    18    48 1
    46    19    22 1
    47    19    21 1
    48    19    49 1
    49    19    50 1
    50    51    29 1
    51    51    26 1
    52    51    53 1
    53    51    54 1
    54    27    20 ar
    55    21    24 1
    56    28    25 1
    57    26    28 ar
    58    30    27 1
@<TRIPOS>SUBSTRUCTURE
     1 ZVY         1 TEMP              0 ****  ****    0 ROOT
