@<TRIPOS>MOLECULE
molecule
   60    63     1     0     0
SMALL
bcc


@<TRIPOS>ATOM
      1 OAC          0.0000     0.0000     0.0000 o          1 ZVZ      -0.570100
      2 CAY          1.2130     0.0000     0.0000 c          1 ZVZ       0.667100
      3 NAW          1.8870     0.0000     1.1660 ns         1 ZVZ      -0.571900
      4 CAA          1.1550    -0.0000     2.4360 c3         1 ZVZ       0.047300
      5 CAT          1.9660    -0.0060    -1.3050 c3         1 ZVZ       0.062400
      6 OAX          1.0370    -0.0120    -2.3910 os         1 ZVZ      -0.294900
      7 CBA          1.5550    -0.0170    -3.6460 ca         1 ZVZ       0.130100
      8 CAK          2.9330    -0.0180    -3.8270 ca         1 ZVZ      -0.218000
      9 CAN          3.4620    -0.0250    -5.1000 ca         1 ZVZ      -0.075000
     10 CAO          0.7090    -0.0290    -4.7460 ca         1 ZVZ      -0.162000
     11 CBC          1.2320    -0.0360    -6.0220 ca         1 ZVZ      -0.012300
     12 CBE          2.6140    -0.0310    -6.2070 cp         1 ZVZ      -0.082000
     13 CBB          3.1800    -0.0370    -7.5770 cp         1 ZVZ       0.017000
     14 CAM          4.0630     0.9700    -7.9710 ca         1 ZVZ      -0.129500
     15 CAJ          4.5890     0.9640    -9.2430 ca         1 ZVZ      -0.085500
     16 CAZ          4.2390    -0.0500   -10.1390 ca         1 ZVZ      -0.042000
     17 CAD          4.7860    -0.0570   -11.4630 cg         1 ZVZ       0.239800
     18 NAB          5.2020    -0.0580   -12.5200 n1         1 ZVZ      -0.367800
     19 CAI          3.3550    -1.0580    -9.7430 ca         1 ZVZ      -0.085500
     20 CAL          2.8350    -1.0530    -8.4690 ca         1 ZVZ      -0.129500
     21 CAU          0.3120    -0.0490    -7.2150 c3         1 ZVZ       0.198100
     22 NBF          0.3080     1.2780    -7.8460 n3         1 ZVZ      -0.754600
     23 CAP         -0.2600     1.2150    -9.1990 c3         1 ZVZ       0.174300
     24 CAR         -0.1730     2.5980    -9.8500 c3         1 ZVZ       0.148800
     25 NBG         -0.8970     3.5730    -9.0220 nh         1 ZVZ      -0.716300
     26 CAS         -0.3280     3.6350    -7.6680 c3         1 ZVZ       0.148800
     27 CAQ         -0.4160     2.2520    -7.0180 c3         1 ZVZ       0.174300
     28 CBD         -0.9000     4.8290    -9.6190 ca         1 ZVZ       0.618200
     29 NAV         -0.2950     5.0030   -10.7840 nb         1 ZVZ      -0.743000
     30 CAG         -0.2760     6.1780   -11.3850 ca         1 ZVZ       0.450200
     31 CAE         -0.8870     7.2750   -10.8130 ca         1 ZVZ      -0.269300
     32 CAF         -1.5320     7.1350    -9.5920 ca         1 ZVZ      -0.093000
     33 CAH         -1.5420     5.8890    -8.9890 ca         1 ZVZ      -0.285300
     34 HAW          2.8560     0.2020     1.3170 hn         1 ZVZ       0.307500
     35 HAT1         2.5640     0.8630    -1.5540 h1         1 ZVZ       0.061200
     36 HAT2         2.5670    -0.8880    -1.1170 h1         1 ZVZ       0.061200
     37 HAA1         0.4040     0.7800     2.4630 h1         1 ZVZ       0.050367
     38 HAA2         0.5170    -0.8570     2.2530 h1         1 ZVZ       0.050367
     39 HAA3         1.5410    -0.0700     3.4460 h1         1 ZVZ       0.050367
     40 HAK          3.5310     0.3210    -2.9910 ha         1 ZVZ       0.131000
     41 HAO         -0.2280     0.3290    -4.3360 ha         1 ZVZ       0.159000
     42 HAN          4.4630     0.2080    -5.4440 ha         1 ZVZ       0.145000
     43 HAU1         0.4440    -0.8820    -7.8950 h1         1 ZVZ       0.048700
     44 HAU2        -0.6670    -0.0750    -6.7510 h1         1 ZVZ       0.048700
     45 HAM          3.8890     1.8700    -7.3950 ha         1 ZVZ       0.145500
     46 HAL          2.0360    -1.7620    -8.2880 ha         1 ZVZ       0.145500
     47 HAJ          5.2760     1.7630    -9.4940 ha         1 ZVZ       0.143500
     48 HAI          3.2930    -1.7640   -10.5620 ha         1 ZVZ       0.143500
     49 HAP1         0.4430     0.4300    -9.4470 h1         1 ZVZ       0.037200
     50 HAP2        -1.0310     0.5230    -8.8840 h1         1 ZVZ       0.037200
     51 HAQ1        -1.3770     1.9170    -6.6490 h1         1 ZVZ       0.037200
     52 HAQ2        -0.0240     2.4320    -6.0240 h1         1 ZVZ       0.037200
     53 HAR1         0.8120     2.8710   -10.2090 h1         1 ZVZ       0.080450
     54 HAR2        -0.5910     2.9780   -10.7740 h1         1 ZVZ       0.080450
     55 HAS1         0.4580     4.2860    -8.0310 h1         1 ZVZ       0.080450
     56 HAS2        -1.1480     3.7810    -6.9750 h1         1 ZVZ       0.080450
     57 HAH         -1.8030     6.0390    -7.9480 ha         1 ZVZ       0.141000
     58 HAG          0.2630     6.3460   -12.3090 h4         1 ZVZ       0.025100
     59 HAE         -0.6240     8.2770   -11.1300 ha         1 ZVZ       0.137000
     60 HAF         -2.1060     7.7320    -8.8930 ha         1 ZVZ       0.146000
@<TRIPOS>BOND
     1     1     2 2
     2     2     3 1
     3     2     5 1
     4     3     4 1
     5     5     6 1
     6     6     7 1
     7     7     8 ar
     8     7    10 ar
     9     8     9 ar
    10     9    12 ar
    11    10    11 ar
    12    11    12 ar
    13    11    21 1
    14    12    13 1
    15    13    14 ar
    16    13    20 ar
    17    14    15 ar
    18    15    16 ar
    19    16    17 1
    20    16    19 ar
    21    17    18 3
    22    19    20 ar
    23    21    22 1
    24    22    23 1
    25    22    27 1
    26    23    24 1
    27    24    25 1
    28    25    26 1
    29    25    28 1
    30    26    27 1
    31    28    29 ar
    32    28    33 ar
    33    29    30 ar
    34    30    31 ar
    35    31    32 ar
    36    32    33 ar
    37     3    34 1
    38     5    35 1
    39     5    36 1
    40     4    37 1
    41     4    38 1
    42     4    39 1
    43     8    40 1
    44    10    41 1
    45     9    42 1
    46    21    43 1
    47    21    44 1
    48    14    45 1
    49    20    46 1
    50    15    47 1
    51    19    48 1
    52    23    49 1
    53    23    50 1
    54    27    51 1
    55    27    52 1
    56    24    53 1
    57    24    54 1
    58    26    55 1
    59    26    56 1
    60    33    57 1
    61    30    58 1
    62    31    59 1
    63    32    60 1
@<TRIPOS>SUBSTRUCTURE
     1 ZVZ         1 TEMP              0 ****  ****    0 ROOT
