@<TRIPOS>MOLECULE
ZW2
   29    31     1     0     0
SMALL
bcc


@<TRIPOS>ATOM
      1 C1           0.0000     0.0000     0.0000 c          1 ZW2       0.637100
      2 C10          5.0220     3.3720    -3.3700 ca         1 ZW2      -0.096500
      3 C11          5.9560     4.0220    -2.5850 ca         1 ZW2      -0.097000
      4 C12          6.5310     3.3700    -1.5110 ca         1 ZW2      -0.096500
      5 C13          6.1720     2.0670    -1.2200 ca         1 ZW2      -0.091500
      6 C2           1.4760     0.0000     0.0000 cc         1 ZW2      -0.246600
      7 C3           2.1200     0.0000     1.2230 cd         1 ZW2      -0.012500
      8 C4           0.0200     0.0070     2.3390 c          1 ZW2       0.572500
      9 C5           2.4090    -0.0020    -1.1120 cc         1 ZW2      -0.026000
     10 C6           3.6770    -0.0030    -0.7390 cd         1 ZW2      -0.003400
     11 C7           4.8470    -0.0040    -1.6890 c3         1 ZW2       0.136200
     12 C8           5.2380     1.4170    -2.0050 ca         1 ZW2      -0.104300
     13 C9           4.6640     2.0680    -3.0800 ca         1 ZW2      -0.091500
     14 N1          -0.6540     0.0070     1.1770 n          1 ZW2       0.056100
     15 N2           1.3590     0.0010     2.3850 ns         1 ZW2       0.062900
     16 O1          -2.0700     0.0140     1.1890 oh         1 ZW2      -0.403100
     17 O2          -0.6170     0.0010    -1.0500 o          1 ZW2      -0.631500
     18 O3          -0.6060     0.0130     3.3820 o          1 ZW2      -0.683500
     19 S            3.8140    -0.0020     1.0090 ss         1 ZW2      -0.198800
     20 H2           6.2370     5.0440    -2.8130 ha         1 ZW2       0.103000
     21 H3           7.2630     3.8800    -0.8970 ha         1 ZW2       0.104500
     22 H4           6.6240     1.5560    -0.3780 ha         1 ZW2       0.106000
     23 H5           2.0960    -0.0030    -2.1490 ha         1 ZW2       0.140000
     24 H6           5.6840    -0.5160    -1.2300 hc         1 ZW2       0.028200
     25 H7           4.5690    -0.5140    -2.6030 hc         1 ZW2       0.028200
     26 H8           3.9320     1.5580    -3.6940 ha         1 ZW2       0.106000
     27 H9           1.8190     0.0010     3.2730 hn         1 ZW2       0.192500
     28 H10         -2.3890    -0.8720     1.1350 ho         1 ZW2       0.406000
     29 H1           4.5710     3.8830    -4.2120 ha         1 ZW2       0.104500
@<TRIPOS>BOND
     1     1     6 1   
     2     1    14 1   
     3     1    17 2   
     4     2     3 ar  
     5     2    13 ar  
     6     2    29 1   
     7     3     4 ar  
     8     3    20 1   
     9     4     5 ar  
    10     4    21 1   
    11     5    12 ar  
    12     5    22 1   
    13     6     7 2   
    14     6     9 1   
    15     7    15 1   
    16     7    19 1   
    17     8    14 1   
    18     8    15 1   
    19     8    18 2   
    20     9    10 2   
    21     9    23 1   
    22    10    11 1   
    23    10    19 1   
    24    11    12 1   
    25    11    24 1   
    26    11    25 1   
    27    12    13 ar  
    28    13    26 1   
    29    14    16 1   
    30    15    27 1   
    31    16    28 1   
@<TRIPOS>SUBSTRUCTURE
     1 ZW2         1 TEMP              0 ****  ****    0 ROOT
