@<TRIPOS>MOLECULE
molecule
   29    31     1     0     0
SMALL
bcc


@<TRIPOS>ATOM
      1 C1           0.0000     0.0000     0.0000 c          1 ZW2       0.731100
      2 C10          5.0220     3.3720    -3.3700 ca         1 ZW2      -0.123500
      3 C11          5.9560     4.0220    -2.5850 ca         1 ZW2      -0.124000
      4 C12          6.5310     3.3700    -1.5110 ca         1 ZW2      -0.123500
      5 C13          6.1720     2.0670    -1.2200 ca         1 ZW2      -0.119500
      6 C2           1.4760     0.0000     0.0000 cc         1 ZW2      -0.244600
      7 C3           2.1200     0.0000     1.2230 cd         1 ZW2       0.098500
      8 C4           0.0200     0.0070     2.3390 c          1 ZW2       0.818500
      9 C5           2.4090    -0.0020    -1.1120 cd         1 ZW2      -0.062000
     10 C6           3.6770    -0.0030    -0.7390 cc         1 ZW2      -0.052400
     11 C7           4.8470    -0.0040    -1.6890 c3         1 ZW2       0.048200
     12 C8           5.2380     1.4170    -2.0050 ca         1 ZW2      -0.090300
     13 C9           4.6640     2.0680    -3.0800 ca         1 ZW2      -0.119500
     14 N1          -0.6540     0.0070     1.1770 n          1 ZW2      -0.347900
     15 N2           1.3590     0.0010     2.3850 ns         1 ZW2      -0.421100
     16 O1          -2.0700     0.0140     1.1890 oh         1 ZW2      -0.317100
     17 O2          -0.6170     0.0010    -1.0500 o          1 ZW2      -0.588500
     18 O3          -0.6060     0.0130     3.3820 o          1 ZW2      -0.631500
     19 S            3.8140    -0.0020     1.0090 ss         1 ZW2      -0.061800
     20 H2           6.2370     5.0440    -2.8130 ha         1 ZW2       0.132000
     21 H3           7.2630     3.8800    -0.8970 ha         1 ZW2       0.132000
     22 H4           6.6240     1.5560    -0.3780 ha         1 ZW2       0.129500
     23 H5           2.0960    -0.0030    -2.1490 ha         1 ZW2       0.174000
     24 H6           5.6840    -0.5160    -1.2300 hc         1 ZW2       0.063700
     25 H7           4.5690    -0.5140    -2.6030 hc         1 ZW2       0.063700
     26 H8           3.9320     1.5580    -3.6940 ha         1 ZW2       0.129500
     27 H9           1.8190     0.0010     3.2730 hn         1 ZW2       0.364500
     28 H10         -2.3890    -0.8720     1.1350 ho         1 ZW2       0.412000
     29 H1           4.5710     3.8830    -4.2120 ha         1 ZW2       0.132000
@<TRIPOS>BOND
     1     4     5 ar
     2     4     3 ar
     3     5    12 ar
     4     3     2 ar
     5    12    11 1
     6    12    13 ar
     7     2    13 ar
     8    11    10 1
     9    10    19 1
    10    10     9 2
    11    19     7 1
    12     9     6 1
    13     7     6 2
    14     7    15 1
    15     6     1 1
    16    15     8 1
    17     1    17 2
    18     1    14 1
    19     8    14 1
    20     8    18 2
    21    14    16 1
    22     2    29 1
    23     3    20 1
    24     4    21 1
    25     5    22 1
    26     9    23 1
    27    11    24 1
    28    11    25 1
    29    13    26 1
    30    15    27 1
    31    16    28 1
@<TRIPOS>SUBSTRUCTURE
     1 ZW2         1 TEMP              0 ****  ****    0 ROOT
