@<TRIPOS>MOLECULE
ZW3
   31    33     1     0     0
SMALL
bcc


@<TRIPOS>ATOM
      1 C1           0.0000     0.0000     0.0000 c3         1 ZW3      -0.066100
      2 C2           1.5060     0.0000     0.0000 c          1 ZW3       0.557100
      3 O3           2.1130     0.0000     1.0500 o          1 ZW3      -0.641100
      4 N4           2.1810     0.0010    -1.1670 ns         1 ZW3       0.012900
      5 C5           3.5830    -0.0000    -1.1680 cc         1 ZW3       0.064200
      6 C6           4.3750    -0.0010    -0.0660 cd         1 ZW3      -0.452100
      7 N7           5.6740    -0.0010    -0.5060 na         1 ZW3       0.632700
      8 C8           6.8630    -0.0020     0.1540 cc         1 ZW3      -0.237300
      9 C9           8.0500    -0.0020    -0.5500 cd         1 ZW3      -0.106800
     10 C10          9.3320    -0.0030     0.1680 cf         1 ZW3       0.118800
     11 C11          9.5410    -0.8810     1.1810 cc         1 ZW3      -0.115600
     12 S12          8.4910    -2.2110     1.7090 ss         1 ZW3      -0.291200
     13 C13          9.5700    -2.7320     3.0150 c          1 ZW3       0.680100
     14 O14          9.3840    -3.6570     3.7820 o          1 ZW3      -0.561500
     15 N15         10.6290    -1.9140     2.9940 ns         1 ZW3      -0.157500
     16 C16         10.6920    -0.9520     2.0890 c          1 ZW3       0.622700
     17 O17         11.6310    -0.1820     2.0160 o          1 ZW3      -0.617500
     18 C18          8.0270    -0.0020    -1.9680 cd         1 ZW3      -0.106000
     19 C19          6.8370    -0.0010    -2.6180 cc         1 ZW3      -0.032000
     20 C20          5.6350    -0.0010    -1.8770 cd         1 ZW3      -0.229300
     21 N21          4.3650    -0.0050    -2.2540 nc         1 ZW3      -0.274600
     22 H11C        -0.3610     0.8850    -0.5090 hc         1 ZW3       0.025367
     23 H12C        -0.3610    -0.8840    -0.5120 hc         1 ZW3       0.025367
     24 H13C        -0.3610    -0.0020     1.0210 hc         1 ZW3       0.025367
     25 H4           1.6810     0.0010    -2.0340 hn         1 ZW3       0.171500
     26 H6           4.0480     0.1620     0.9540 h4         1 ZW3       0.217000
     27 H8           6.8790     0.0060     1.2370 h4         1 ZW3       0.157000
     28 H10         10.0670     0.7650    -0.0420 ha         1 ZW3       0.131000
     29 H18          8.9550    -0.0020    -2.5290 ha         1 ZW3       0.120000
     30 H15         11.3710    -2.0340     3.6550 hn         1 ZW3       0.200500
     31 H19          6.8080    -0.0010    -3.7010 ha         1 ZW3       0.126000
@<TRIPOS>BOND
     1     1     2 1   
     2     1    22 1   
     3     1    23 1   
     4     1    24 1   
     5     2     3 2   
     6     2     4 1   
     7     4     5 1   
     8     4    25 1   
     9     5     6 2   
    10     5    21 1   
    11     6     7 1   
    12     6    26 1   
    13     7     8 1   
    14     7    20 1   
    15     8     9 2   
    16     8    27 1   
    17     9    10 1   
    18     9    18 1   
    19    10    11 2   
    20    10    28 1   
    21    11    12 1   
    22    11    16 1   
    23    12    13 1   
    24    13    14 2   
    25    13    15 1   
    26    15    16 1   
    27    15    30 1   
    28    16    17 2   
    29    18    19 2   
    30    18    29 1   
    31    19    20 1   
    32    19    31 1   
    33    20    21 2   
@<TRIPOS>SUBSTRUCTURE
     1 ZW3         1 TEMP              0 ****  ****    0 ROOT
