@<TRIPOS>MOLECULE
molecule
   31    33     1     0     0
SMALL
bcc


@<TRIPOS>ATOM
      1 C1           0.0000     0.0000     0.0000 c3         1 ZW3      -0.166100
      2 C2           1.5060     0.0000     0.0000 c          1 ZW3       0.664100
      3 O3           2.1130     0.0000     1.0500 o          1 ZW3      -0.602100
      4 N4           2.1810     0.0010    -1.1670 ns         1 ZW3      -0.449100
      5 C5           3.5830    -0.0000    -1.1680 cc         1 ZW3       0.218200
      6 C6           4.3750    -0.0010    -0.0660 cd         1 ZW3      -0.244100
      7 N7           5.6740    -0.0010    -0.5060 na         1 ZW3       0.048700
      8 C8           6.8630    -0.0020     0.1540 cc         1 ZW3      -0.035300
      9 C9           8.0500    -0.0020    -0.5500 cd         1 ZW3      -0.141800
     10 C10          9.3320    -0.0030     0.1680 cf         1 ZW3       0.048800
     11 C11          9.5410    -0.8810     1.1810 cc         1 ZW3      -0.112600
     12 S12          8.4910    -2.2110     1.7090 ss         1 ZW3      -0.203200
     13 C13          9.5700    -2.7320     3.0150 c          1 ZW3       0.731100
     14 O14          9.3840    -3.6570     3.7820 o          1 ZW3      -0.537500
     15 N15         10.6290    -1.9140     2.9940 ns         1 ZW3      -0.579500
     16 C16         10.6920    -0.9520     2.0890 c          1 ZW3       0.705700
     17 O17         11.6310    -0.1820     2.0160 o          1 ZW3      -0.582500
     18 C18          8.0270    -0.0020    -1.9680 cd         1 ZW3      -0.106000
     19 C19          6.8370    -0.0010    -2.6180 cc         1 ZW3      -0.088000
     20 C20          5.6350    -0.0010    -1.8770 cd         1 ZW3      -0.007300
     21 N21          4.3650    -0.0050    -2.2540 nc         1 ZW3      -0.345600
     22 H11C        -0.3610     0.8850    -0.5090 hc         1 ZW3       0.066367
     23 H12C        -0.3610    -0.0020     1.0210 hc         1 ZW3       0.066367
     24 H13C        -0.3610    -0.8840    -0.5120 hc         1 ZW3       0.066367
     25 H4           1.6810     0.0010    -2.0340 hn         1 ZW3       0.337500
     26 H6           4.0480     0.1620     0.9540 h4         1 ZW3       0.228000
     27 H8           6.8790     0.0060     1.2370 h4         1 ZW3       0.179000
     28 H10         10.0670     0.7650    -0.0420 ha         1 ZW3       0.172000
     29 H18          8.9550    -0.0020    -2.5290 ha         1 ZW3       0.149000
     30 H15         11.3710    -2.0340     3.6550 hn         1 ZW3       0.355500
     31 H19          6.8080    -0.0010    -3.7010 ha         1 ZW3       0.164000
@<TRIPOS>BOND
     1     1     2 1
     2     2     3 2
     3     2     4 1
     4     4     5 1
     5     5     6 2
     6     5    21 1
     7     6     7 1
     8     7     8 1
     9     7    20 1
    10     8     9 2
    11     9    10 1
    12     9    18 1
    13    10    11 2
    14    11    12 1
    15    11    16 1
    16    12    13 1
    17    13    14 2
    18    13    15 1
    19    15    16 1
    20    16    17 2
    21    18    19 2
    22    19    20 1
    23    20    21 2
    24     1    22 1
    25     1    23 1
    26     1    24 1
    27     4    25 1
    28     6    26 1
    29     8    27 1
    30    10    28 1
    31    18    29 1
    32    15    30 1
    33    19    31 1
@<TRIPOS>SUBSTRUCTURE
     1 ZW3         1 TEMP              0 ****  ****    0 ROOT
