@<TRIPOS>MOLECULE
molecule
   53    52     1     0     0
SMALL
bcc


@<TRIPOS>ATOM
      1 O3           0.0000     0.0000     0.0000 o          1 ZWI      -0.684200
      2 S1           1.4550     0.0000     0.0000 s6         1 ZWI       1.239800
      3 O1           1.9550     0.0000     1.3660 o          1 ZWI      -0.684200
      4 O2           1.9550    -1.1640    -0.7170 o          1 ZWI      -0.684200
      5 C1           2.0400     1.4990    -0.8370 c3         1 ZWI      -0.254600
      6 C2           1.5220     1.5150    -2.2770 c3         1 ZWI      -0.070400
      7 C3           2.0150     2.7790    -2.9830 c3         1 ZWI       0.098800
      8 N1           1.5180     2.7940    -4.3650 n4         1 ZWI      -0.573800
      9 C14          2.0160     1.6100    -5.0770 c3         1 ZWI       0.089600
     10 C15          0.0490     2.7800    -4.3560 c3         1 ZWI       0.089600
     11 C4           1.9930     4.0080    -5.0420 c3         1 ZWI       0.102800
     12 C5           1.4740     4.0240    -6.4820 c3         1 ZWI      -0.113400
     13 C6           1.9680     5.2880    -7.1880 c3         1 ZWI      -0.078400
     14 C7           1.4490     5.3040    -8.6270 c3         1 ZWI      -0.081400
     15 C8           1.9440     6.5680    -9.3340 c3         1 ZWI      -0.081400
     16 C10          1.4250     6.5840   -10.7730 c3         1 ZWI      -0.081400
     17 C9           1.9190     7.8480   -11.4790 c3         1 ZWI      -0.081400
     18 C11          1.4010     7.8650   -12.9180 c3         1 ZWI      -0.081400
     19 C12          1.8950     9.1290   -13.6240 c3         1 ZWI      -0.083400
     20 C13          1.3760     9.1450   -15.0640 c3         1 ZWI      -0.092100
     21 H11          3.1230     1.5100    -0.8420 h1         1 ZWI       0.076700
     22 H12          1.6730     2.3720    -0.3110 h1         1 ZWI       0.076700
     23 H22          1.8890     0.6410    -2.8020 hc         1 ZWI       0.068700
     24 H21          0.4390     1.5040    -2.2710 hc         1 ZWI       0.068700
     25 H31          1.6480     3.6520    -2.4570 hx         1 ZWI       0.092700
     26 H32          3.0980     2.7900    -2.9880 hx         1 ZWI       0.092700
     27 H141         3.0890     1.5360    -4.9500 hx         1 ZWI       0.097367
     28 H142         1.7820     1.6970    -6.1310 hx         1 ZWI       0.097367
     29 H143         1.5430     0.7220    -4.6750 hx         1 ZWI       0.097367
     30 H152        -0.3000     1.8430    -3.9400 hx         1 ZWI       0.097367
     31 H151        -0.3190     2.8840    -5.3700 hx         1 ZWI       0.097367
     32 H153        -0.3160     3.6020    -3.7530 hx         1 ZWI       0.097367
     33 H41          3.0760     4.0180    -5.0490 hx         1 ZWI       0.095700
     34 H42          1.6270     4.8820    -4.5170 hx         1 ZWI       0.095700
     35 H52          1.8400     3.1510    -7.0080 hc         1 ZWI       0.060700
     36 H51          0.3910     4.0140    -6.4760 hc         1 ZWI       0.060700
     37 H62          3.0520     5.2980    -7.1950 hc         1 ZWI       0.052700
     38 H61          1.6020     6.1620    -6.6630 hc         1 ZWI       0.052700
     39 H71          1.8160     4.4300    -9.1530 hc         1 ZWI       0.046700
     40 H72          0.3660     5.2940    -8.6210 hc         1 ZWI       0.046700
     41 H82          3.0270     6.5780    -9.3400 hc         1 ZWI       0.045200
     42 H81          1.5770     7.4420    -8.8090 hc         1 ZWI       0.045200
     43 H101         0.3420     6.5740   -10.7670 hc         1 ZWI       0.043700
     44 H102         1.7910     5.7110   -11.2990 hc         1 ZWI       0.043700
     45 H91          1.5530     8.7220   -10.9530 hc         1 ZWI       0.042700
     46 H92          3.0030     7.8580   -11.4850 hc         1 ZWI       0.042700
     47 H112         1.7670     6.9910   -13.4440 hc         1 ZWI       0.041700
     48 H111         0.3180     7.8550   -12.9120 hc         1 ZWI       0.041700
     49 H121         1.5290    10.0030   -13.0990 hc         1 ZWI       0.040700
     50 H122         2.9790     9.1390   -13.6300 hc         1 ZWI       0.040700
     51 H132         1.7260    10.0400   -15.5640 hc         1 ZWI       0.034367
     52 H133         1.7420     8.2710   -15.5900 hc         1 ZWI       0.034367
     53 H131         0.2930     9.1350   -15.0580 hc         1 ZWI       0.034367
@<TRIPOS>BOND
     1    19    18 1
     2    19    20 1
     3    18    17 1
     4    17    16 1
     5    16    15 1
     6    15    14 1
     7    14    13 1
     8    13    12 1
     9    12    11 1
    10    11     8 1
    11    10     8 1
    12     8     9 1
    13     8     7 1
    14     7     6 1
    15     6     5 1
    16     5     2 1
    17     1     2 1
    18     2     3 1
    19     2     4 1
    20     5    21 1
    21     5    22 1
    22     6    23 1
    23     6    24 1
    24     7    25 1
    25     7    26 1
    26     9    27 1
    27     9    28 1
    28     9    29 1
    29    10    30 1
    30    10    31 1
    31    10    32 1
    32    11    33 1
    33    11    34 1
    34    12    35 1
    35    12    36 1
    36    13    37 1
    37    13    38 1
    38    14    39 1
    39    14    40 1
    40    15    41 1
    41    15    42 1
    42    16    43 1
    43    16    44 1
    44    17    45 1
    45    17    46 1
    46    18    47 1
    47    18    48 1
    48    19    49 1
    49    19    50 1
    50    20    51 1
    51    20    52 1
    52    20    53 1
@<TRIPOS>SUBSTRUCTURE
     1 ZWI         1 TEMP              0 ****  ****    0 ROOT
