@<TRIPOS>MOLECULE
ZWZ
   29    29     1     0     0
SMALL
bcc


@<TRIPOS>ATOM
      1 OAE          0.0000     0.0000     0.0000 oh         1 ZWZ      -0.584800
      2 CAK          1.4280     0.0000     0.0000 c3         1 ZWZ       0.162100
      3 CAJ          1.9400     0.0000     1.4430 c3         1 ZWZ       0.158100
      4 OAD          1.5140     1.1960     2.1010 oh         1 ZWZ      -0.565800
      5 CAI          3.4700    -0.0600     1.4350 c3         1 ZWZ       0.134100
      6 OAC          3.9900     1.1040     0.7890 oh         1 ZWZ      -0.587800
      7 CAH          3.9220    -1.3100     0.6770 c3         1 ZWZ       0.121500
      8 CAA          5.4500    -1.3650     0.6490 c3         1 ZWZ       0.009900
      9 NAG          3.4090    -1.2630    -0.6980 n7         1 ZWZ      -0.627200
     10 CAL          1.9400    -1.2510    -0.7160 c3         1 ZWZ       0.090500
     11 CAF          1.4480    -1.2470    -2.1650 c3         1 ZWZ      -0.045200
     12 NAB          2.0360    -2.3840    -2.8860 nz         1 ZWZ       0.094400
     13 HOAE        -0.3140     0.8520    -0.2530 ho         1 ZWZ       0.418000
     14 HAK          1.7950     0.8820    -0.5110 h1         1 ZWZ       0.038700
     15 HAJ          1.5480    -0.8650     1.9650 h1         1 ZWZ       0.023700
     16 HOAD         1.2190     0.9880     2.9720 ho         1 ZWZ       0.407000
     17 HAI          3.8340    -0.1060     2.4540 h1         1 ZWZ       0.031700
     18 HOAC         4.4230     1.6490     1.4240 ho         1 ZWZ       0.419000
     19 HAH          3.5340    -2.1910     1.1740 h1         1 ZWZ       0.044700
     20 HAA          5.8280    -0.5880    -0.0050 hc         1 ZWZ       0.019367
     21 HAAA         5.7700    -2.3330     0.2820 hc         1 ZWZ       0.019367
     22 HAAB         5.8360    -1.2130     1.6500 hc         1 ZWZ       0.019367
     23 HNAG         3.7550    -0.4430    -1.1560 hn         1 ZWZ       0.287800
     24 HAL          1.5680    -2.1330    -0.2070 h1         1 ZWZ       0.063700
     25 HAF          1.7460    -0.3220    -2.6450 hx         1 ZWZ       0.087700
     26 HAFA         0.3680    -1.3290    -2.1800 hx         1 ZWZ       0.087700
     27 HNAB         1.5250    -2.5430    -3.7320 hn         1 ZWZ       0.224133
     28 HNAA         1.9920    -3.2020    -2.3110 hn         1 ZWZ       0.224133
     29 HAB3         2.9910    -2.1820    -3.1060 hn         1 ZWZ       0.224133
@<TRIPOS>BOND
     1     1     2 1   
     2     1    13 1   
     3     2     3 1   
     4     2    10 1   
     5     2    14 1   
     6     3     4 1   
     7     3     5 1   
     8     3    15 1   
     9     4    16 1   
    10     5     6 1   
    11     5     7 1   
    12     5    17 1   
    13     6    18 1   
    14     7     8 1   
    15     7     9 1   
    16     7    19 1   
    17     8    20 1   
    18     8    21 1   
    19     8    22 1   
    20     9    10 1   
    21     9    23 1   
    22    10    11 1   
    23    10    24 1   
    24    11    12 1   
    25    11    25 1   
    26    11    26 1   
    27    12    27 1   
    28    12    28 1   
    29    12    29 1   
@<TRIPOS>SUBSTRUCTURE
     1 ZWZ         1 TEMP              0 ****  ****    0 ROOT
