@<TRIPOS>MOLECULE
molecule
   29    29     1     0     0
SMALL
bcc


@<TRIPOS>ATOM
      1 OAE          0.0000     0.0000     0.0000 oh         1 ZWZ      -0.606800
      2 CAK          1.4280     0.0000     0.0000 c3         1 ZWZ       0.123100
      3 CAJ          1.9400     0.0000     1.4430 c3         1 ZWZ       0.125100
      4 OAD          1.5140     1.1960     2.1010 oh         1 ZWZ      -0.584800
      5 CAI          3.4700    -0.0600     1.4350 c3         1 ZWZ       0.091100
      6 OAC          3.9900     1.1040     0.7890 oh         1 ZWZ      -0.606800
      7 CAH          3.9220    -1.3100     0.6770 c3         1 ZWZ       0.161500
      8 CAA          5.4500    -1.3650     0.6490 c3         1 ZWZ      -0.087100
      9 NAG          3.4090    -1.2630    -0.6980 n7         1 ZWZ      -0.842200
     10 CAL          1.9400    -1.2510    -0.7160 c3         1 ZWZ       0.125500
     11 CAF          1.4480    -1.2470    -2.1650 c3         1 ZWZ       0.103800
     12 NAB          2.0360    -2.3840    -2.8860 nz         1 ZWZ      -0.800600
     13 HOAE        -0.3140     0.8520    -0.2530 ho         1 ZWZ       0.431000
     14 HAK          1.7950     0.8820    -0.5110 h1         1 ZWZ       0.073700
     15 HAJ          1.5480    -0.8650     1.9650 h1         1 ZWZ       0.057700
     16 HOAD         1.2190     0.9880     2.9720 ho         1 ZWZ       0.422000
     17 HAI          3.8340    -0.1060     2.4540 h1         1 ZWZ       0.065700
     18 HOAC         4.4230     1.6490     1.4240 ho         1 ZWZ       0.431000
     19 HAH          3.5340    -2.1910     1.1740 h1         1 ZWZ       0.075700
     20 HAA          5.8280    -0.5880    -0.0050 hc         1 ZWZ       0.055033
     21 HAAA         5.7700    -2.3330     0.2820 hc         1 ZWZ       0.055033
     22 HAAB         5.8360    -1.2130     1.6500 hc         1 ZWZ       0.055033
     23 HNAG         3.7550    -0.4430    -1.1560 hn         1 ZWZ       0.380800
     24 HAL          1.5680    -2.1330    -0.2070 h1         1 ZWZ       0.092700
     25 HAF          1.7460    -0.3220    -2.6450 hx         1 ZWZ       0.114700
     26 HAFA         0.3680    -1.3290    -2.1800 hx         1 ZWZ       0.114700
     27 HNAB         1.5250    -2.5430    -3.7320 hn         1 ZWZ       0.458467
     28 HNAA         1.9920    -3.2020    -2.3110 hn         1 ZWZ       0.458467
     29 HAB3         2.9910    -2.1820    -3.1060 hn         1 ZWZ       0.458467
@<TRIPOS>BOND
     1     1     2 1
     2     2     3 1
     3     2    10 1
     4     3     4 1
     5     3     5 1
     6     5     6 1
     7     5     7 1
     8     7     8 1
     9     7     9 1
    10     9    10 1
    11    10    11 1
    12    11    12 1
    13     1    13 1
    14     2    14 1
    15     3    15 1
    16     4    16 1
    17     5    17 1
    18     6    18 1
    19     7    19 1
    20     8    20 1
    21     8    21 1
    22     8    22 1
    23     9    23 1
    24    10    24 1
    25    11    25 1
    26    11    26 1
    27    12    27 1
    28    12    28 1
    29    29    12 1
@<TRIPOS>SUBSTRUCTURE
     1 ZWZ         1 TEMP              0 ****  ****    0 ROOT
