@<TRIPOS>MOLECULE
ZX0
   43    44     1     0     0
SMALL
bcc


@<TRIPOS>ATOM
      1 S1           0.0000     0.0000     0.0000 s6         1 ZX0       1.120700
      2 O2           1.5220     0.0000     0.0000 o          1 ZX0      -0.681533
      3 O3          -0.4020     0.0000     1.3630 o          1 ZX0      -0.681533
      4 O4          -0.4010     0.9980    -0.9290 o          1 ZX0      -0.681533
      5 N5          -0.4900    -1.4510    -0.6310 n7         1 ZX0      -0.597100
      6 C6          -0.1950    -2.6970     0.0810 c3         1 ZX0       0.249500
      7 C7           1.0900    -3.3600    -0.4830 c3         1 ZX0      -0.083400
      8 C8           0.5340    -4.1180    -1.7140 c3         1 ZX0       0.038000
      9 N9          -0.7890    -4.6110    -1.2880 n          1 ZX0      -0.119800
     10 C10         -1.2820    -3.7560    -0.1970 c3         1 ZX0      -0.091300
     11 C11         -2.5620    -3.0790    -0.6160 c          1 ZX0       1.003600
     12 O12         -2.8580    -3.0160    -1.7850 o          1 ZX0      -0.899300
     13 C13         -1.4390    -5.6670    -1.8120 c          1 ZX0       0.612100
     14 O14         -2.5300    -5.9850    -1.3820 o          1 ZX0      -0.706100
     15 N15         -0.8790    -6.3740    -2.8150 ns         1 ZX0      -0.264900
     16 C16         -1.5850    -7.5240    -3.3850 c3         1 ZX0       0.039700
     17 C17         -1.1210    -7.7350    -4.7510 c3         1 ZX0      -0.044400
     18 C18         -1.8530    -8.9060    -5.4410 c3         1 ZX0      -0.028400
     19 C19         -1.2560   -10.1970    -4.9510 c3         1 ZX0       0.149800
     20 N20         -1.9890   -10.7670    -3.7990 n7         1 ZX0      -0.606200
     21 C21         -2.4070    -9.7780    -2.7810 c3         1 ZX0       0.144800
     22 C22         -1.3420    -8.7560    -2.4890 c3         1 ZX0      -0.081400
     23 OX0         -3.3730    -2.5470     0.3120 o          1 ZX0      -0.899300
     24 H5          -0.9660    -1.4790    -1.5110 hn         1 ZX0       0.346800
     25 H6          -0.0970    -2.5230     1.1460 h1         1 ZX0       0.049700
     26 H71C         1.5150    -4.0510     0.2360 hc         1 ZX0       0.023700
     27 H72C         1.8110    -2.6100    -0.7850 hc         1 ZX0       0.023700
     28 H10         -1.4480    -4.3530     0.6910 h1         1 ZX0       0.024700
     29 H81C         0.4310    -3.4430    -2.5550 h1         1 ZX0      -0.005800
     30 H82C         1.1810    -4.9490    -1.9670 h1         1 ZX0      -0.005800
     31 H15          0.0150    -6.1070    -3.1770 hn         1 ZX0       0.165500
     32 H16         -2.6480    -7.3130    -3.4060 h1         1 ZX0       0.067700
     33 H171        -0.0600    -7.9490    -4.7310 hc         1 ZX0       0.017200
     34 H172        -1.2920    -6.8310    -5.3230 hc         1 ZX0       0.017200
     35 H221        -0.3670    -9.1760    -2.7060 hc         1 ZX0       0.028700
     36 H222        -1.3950    -8.4640    -1.4480 hc         1 ZX0       0.028700
     37 H181        -2.9060    -8.8750    -5.1910 hc         1 ZX0       0.021700
     38 H182        -1.7260    -8.8320    -6.5140 hc         1 ZX0       0.021700
     39 H191        -0.2300   -10.0150    -4.6540 h1         1 ZX0      -0.002800
     40 H192        -1.2680   -10.9150    -5.7610 h1         1 ZX0      -0.002800
     41 H20         -1.4310   -11.4760    -3.3660 hn         1 ZX0       0.238800
     42 H211        -2.6460   -10.3020    -1.8640 h1         1 ZX0       0.024700
     43 H212        -3.2920    -9.2650    -3.1380 h1         1 ZX0       0.024700
@<TRIPOS>BOND
     1     1     2 1   
     2     1     3 1   
     3     1     4 1   
     4     1     5 1   
     5     5     6 1   
     6     5    24 1   
     7     6     7 1   
     8     6    10 1   
     9     6    25 1   
    10     7     8 1   
    11     7    26 1   
    12     7    27 1   
    13     8     9 1   
    14     8    29 1   
    15     8    30 1   
    16     9    10 1   
    17     9    13 1   
    18    10    11 1   
    19    10    28 1   
    20    11    12 1   
    21    11    23 1   
    22    13    14 2   
    23    13    15 1   
    24    15    16 1   
    25    15    31 1   
    26    16    17 1   
    27    16    22 1   
    28    16    32 1   
    29    17    18 1   
    30    17    33 1   
    31    17    34 1   
    32    18    19 1   
    33    18    37 1   
    34    18    38 1   
    35    19    20 1   
    36    19    39 1   
    37    19    40 1   
    38    20    21 1   
    39    20    41 1   
    40    21    22 1   
    41    21    42 1   
    42    21    43 1   
    43    22    35 1   
    44    22    36 1   
@<TRIPOS>SUBSTRUCTURE
     1 ZX0         1 TEMP              0 ****  ****    0 ROOT
