@<TRIPOS>MOLECULE
ZX1
   43    44     1     0     0
SMALL
bcc


@<TRIPOS>ATOM
      1 S1           0.0000     0.0000     0.0000 s6         1 ZX1       1.121700
      2 O2           1.4210     0.0000     0.0000 o          1 ZX1      -0.681867
      3 O3          -0.7780     0.0000     1.1890 o          1 ZX1      -0.681867
      4 O4          -0.4300     1.2250    -0.7950 o          1 ZX1      -0.681867
      5 N5          -0.4670    -1.3330    -0.8640 n7         1 ZX1      -0.597100
      6 C6           0.1320    -1.6050    -2.1730 c3         1 ZX1       0.249500
      7 C7          -0.7710    -1.0650    -3.3140 c3         1 ZX1      -0.083400
      8 C8          -1.7950    -2.2180    -3.4700 c3         1 ZX1       0.037000
      9 N9          -1.0130    -3.4490    -3.2570 n          1 ZX1      -0.120800
     10 C10          0.1720    -3.1220    -2.4520 c3         1 ZX1      -0.091300
     11 C11          0.1330    -3.8830    -1.1510 c          1 ZX1       1.004600
     12 O12         -0.9050    -4.3640    -0.7640 o          1 ZX1      -0.900300
     13 C13         -1.3330    -4.6720    -3.7260 c          1 ZX1       0.611100
     14 O14         -0.6100    -5.6210    -3.4870 o          1 ZX1      -0.706100
     15 N15         -2.4520    -4.8440    -4.4560 ns         1 ZX1      -0.262900
     16 C16         -2.7990    -6.1740    -4.9640 c3         1 ZX1       0.049700
     17 C17         -3.6880    -6.0330    -6.2190 c3         1 ZX1      -0.044400
     18 C18         -3.7350    -7.2710    -6.9890 c3         1 ZX1      -0.022400
     19 C19         -4.3330    -8.4440    -6.1910 c3         1 ZX1       0.142800
     20 N20         -3.3010    -8.9900    -5.3450 n7         1 ZX1      -0.579200
     21 C21         -3.3130    -8.4510    -3.9670 c3         1 ZX1       0.155800
     22 C22         -3.5610    -6.9320    -3.9110 c3         1 ZX1      -0.057400
     23 OX0          1.2520    -4.0270    -0.4250 o          1 ZX1      -0.900300
     24 H5          -1.1770    -1.9390    -0.5040 hn         1 ZX1       0.346800
     25 H6           1.1260    -1.1800    -2.2420 h1         1 ZX1       0.048700
     26 H71C        -1.2650    -0.1490    -3.0150 hc         1 ZX1       0.023200
     27 H72C        -0.2020    -0.9290    -4.2260 hc         1 ZX1       0.023200
     28 H10          1.0710    -3.3700    -3.0030 h1         1 ZX1       0.025700
     29 H81C        -2.5730    -2.1330    -2.7210 h1         1 ZX1      -0.005800
     30 H82C        -2.2200    -2.2100    -4.4670 h1         1 ZX1      -0.005800
     31 H15         -3.0450    -4.0620    -4.6540 hn         1 ZX1       0.163500
     32 H16         -1.8970    -6.7170    -5.2190 h1         1 ZX1       0.070700
     33 H171        -3.2900    -5.2440    -6.8460 hc         1 ZX1       0.009700
     34 H172        -4.6940    -5.7720    -5.9110 hc         1 ZX1       0.009700
     35 H221        -3.2620    -6.5680    -2.9350 hc         1 ZX1       0.032700
     36 H222        -4.6200    -6.7480    -4.0480 hc         1 ZX1       0.032700
     37 H181        -4.3390    -7.1080    -7.8730 hc         1 ZX1       0.010200
     38 H182        -2.7280    -7.5320    -7.2900 hc         1 ZX1       0.010200
     39 H191        -5.1540    -8.0870    -5.5790 h1         1 ZX1      -0.001800
     40 H192        -4.6850    -9.2070    -6.8740 h1         1 ZX1      -0.001800
     41 H20         -3.3870    -9.9870    -5.3140 hn         1 ZX1       0.233800
     42 H211        -4.0950    -8.9500    -3.4070 h1         1 ZX1       0.006200
     43 H212        -2.3570    -8.6630    -3.5040 h1         1 ZX1       0.006200
@<TRIPOS>BOND
     1     1     2 1   
     2     1     3 1   
     3     1     4 1   
     4     1     5 1   
     5     5     6 1   
     6     5    24 1   
     7     6     7 1   
     8     6    10 1   
     9     6    25 1   
    10     7     8 1   
    11     7    26 1   
    12     7    27 1   
    13     8     9 1   
    14     8    29 1   
    15     8    30 1   
    16     9    10 1   
    17     9    13 1   
    18    10    11 1   
    19    10    28 1   
    20    11    12 1   
    21    11    23 1   
    22    13    14 2   
    23    13    15 1   
    24    15    16 1   
    25    15    31 1   
    26    16    17 1   
    27    16    22 1   
    28    16    32 1   
    29    17    18 1   
    30    17    33 1   
    31    17    34 1   
    32    18    19 1   
    33    18    37 1   
    34    18    38 1   
    35    19    20 1   
    36    19    39 1   
    37    19    40 1   
    38    20    21 1   
    39    20    41 1   
    40    21    22 1   
    41    21    42 1   
    42    21    43 1   
    43    22    35 1   
    44    22    36 1   
@<TRIPOS>SUBSTRUCTURE
     1 ZX1         1 TEMP              0 ****  ****    0 ROOT
