@<TRIPOS>MOLECULE
molecule
   50    52     1     0     0
SMALL
bcc


@<TRIPOS>ATOM
      1 CAT          0.0000     0.0000     0.0000 ca         1 ZX5      -0.099800
      2 CAI          1.3960     0.0000     0.0000 ca         1 ZX5      -0.079000
      3 CAG          2.0740     0.0000     1.1860 ca         1 ZX5      -0.158000
      4 CAF          1.3860     0.0010     2.3930 ca         1 ZX5      -0.109000
      5 CAH          0.0090     0.0010     2.4150 ca         1 ZX5      -0.145000
      6 CAS         -0.7020     0.0010     1.2200 ca         1 ZX5      -0.038200
      7 NAP         -2.0450     0.0020     0.9150 na         1 ZX5      -0.183400
      8 CAJ         -2.2150     0.0010    -0.4430 cc         1 ZX5      -0.098100
      9 CAR         -1.0190     0.0050    -1.0530 cd         1 ZX5      -0.158400
     10 CAL         -0.7710     0.0120    -2.5390 c3         1 ZX5       0.012800
     11 CAK         -0.5640    -1.4230    -3.0280 c3         1 ZX5      -0.155400
     12 CAQ         -0.3170    -1.4160    -4.5150 c          1 ZX5       0.656100
     13 OAB         -0.3060    -0.3670    -5.1230 o          1 ZX5      -0.607100
     14 NAN         -0.1070    -2.5760    -5.1680 ns         1 ZX5      -0.591900
     15 CAM          0.1340    -2.5690    -6.6130 c3         1 ZX5       0.120000
     16 CAV          0.3410    -4.0040    -7.1020 c3         1 ZX5       0.146500
     17 NAO         -0.8080    -4.8280    -6.7040 n7         1 ZX5      -0.798200
     18 CAU         -0.6290    -6.2250    -7.1180 c3         1 ZX5       0.157500
     19 CAA         -1.8250    -7.0540    -6.6460 c3         1 ZX5      -0.088100
     20 CAW         -0.5290    -6.2970    -8.6430 c3         1 ZX5       0.143100
     21 OAC         -1.7340    -5.7940    -9.2240 oh         1 ZX5      -0.573800
     22 CAY          0.6570    -5.4500    -9.1130 c3         1 ZX5       0.116100
     23 OAE          0.7210    -5.4670   -10.5410 oh         1 ZX5      -0.596800
     24 CAX          0.4700    -4.0100    -8.6270 c3         1 ZX5       0.155100
     25 OAD          1.6010    -3.2250    -9.0130 oh         1 ZX5      -0.610800
     26 HAI          1.9400    -0.0010    -0.9370 ha         1 ZX5       0.131000
     27 HAG          3.1570    -0.0000     1.1860 ha         1 ZX5       0.128000
     28 HAF          1.9380     0.0010     3.3250 ha         1 ZX5       0.129000
     29 HAH         -0.5190     0.0020     3.3620 ha         1 ZX5       0.124000
     30 HNAP        -2.7870    -0.0010     1.5870 hn         1 ZX5       0.295700
     31 HAJ         -3.1720    -0.0010    -0.9500 h4         1 ZX5       0.167000
     32 HAL         -1.6240     0.4470    -3.0450 hc         1 ZX5       0.063200
     33 HALA         0.1140     0.5980    -2.7550 hc         1 ZX5       0.063200
     34 HAK          0.2900    -1.8580    -2.5220 hc         1 ZX5       0.061700
     35 HAKA        -1.4490    -2.0090    -2.8120 hc         1 ZX5       0.061700
     36 HNAN        -0.0690    -3.4370    -4.6590 hn         1 ZX5       0.305500
     37 HAM          1.0200    -1.9830    -6.8290 h1         1 ZX5       0.068200
     38 HAMA        -0.7190    -2.1350    -7.1200 h1         1 ZX5       0.068200
     39 HAV          1.2440    -4.4120    -6.6640 h1         1 ZX5       0.029700
     40 HNAO        -0.9200    -4.7870    -5.7100 hn         1 ZX5       0.355800
     41 HAU          0.2820    -6.6160    -6.6800 h1         1 ZX5       0.021700
     42 HAA         -2.7440    -6.5440    -6.9080 hc         1 ZX5       0.044367
     43 HAAA        -1.8030    -8.0260    -7.1240 hc         1 ZX5       0.044367
     44 HAAB        -1.7760    -7.1800    -5.5710 hc         1 ZX5       0.044367
     45 HAW         -0.3790    -7.3260    -8.9460 h1         1 ZX5       0.036700
     46 HOAC        -2.0860    -6.4340    -9.8210 ho         1 ZX5       0.400000
     47 HAY          1.5730    -5.8540    -8.7000 h1         1 ZX5       0.043700
     48 HOAE         1.4850    -5.9460   -10.8160 ho         1 ZX5       0.403000
     49 HAX         -0.4300    -3.5960    -9.0650 h1         1 ZX5       0.081700
     50 HOAD         1.3580    -2.6520    -9.7220 ho         1 ZX5       0.416000
@<TRIPOS>BOND
     1     1     2 ar
     2     1     6 ar
     3     1     9 1
     4     2     3 ar
     5     3     4 ar
     6     4     5 ar
     7     5     6 ar
     8     6     7 1
     9     7     8 1
    10     8     9 2
    11     9    10 1
    12    10    11 1
    13    11    12 1
    14    12    13 2
    15    12    14 1
    16    14    15 1
    17    15    16 1
    18    16    17 1
    19    16    24 1
    20    17    18 1
    21    18    19 1
    22    18    20 1
    23    20    21 1
    24    20    22 1
    25    22    23 1
    26    22    24 1
    27    24    25 1
    28     2    26 1
    29     3    27 1
    30     4    28 1
    31     5    29 1
    32     7    30 1
    33     8    31 1
    34    10    32 1
    35    10    33 1
    36    11    34 1
    37    11    35 1
    38    14    36 1
    39    15    37 1
    40    15    38 1
    41    16    39 1
    42    17    40 1
    43    18    41 1
    44    19    42 1
    45    19    43 1
    46    19    44 1
    47    20    45 1
    48    21    46 1
    49    22    47 1
    50    23    48 1
    51    24    49 1
    52    25    50 1
@<TRIPOS>SUBSTRUCTURE
     1 ZX5         1 TEMP              0 ****  ****    0 ROOT
