@<TRIPOS>MOLECULE
ZX5
   50    52     1     0     0
SMALL
bcc


@<TRIPOS>ATOM
      1 CAT          0.0000     0.0000     0.0000 ca         1 ZX5      -0.096800
      2 CAI          1.3960     0.0000     0.0000 ca         1 ZX5      -0.044000
      3 CAG          2.0740     0.0000     1.1860 ca         1 ZX5      -0.134000
      4 CAF          1.3860     0.0010     2.3930 ca         1 ZX5      -0.085000
      5 CAH          0.0090     0.0010     2.4150 ca         1 ZX5      -0.104000
      6 CAS         -0.7020     0.0010     1.2200 ca         1 ZX5      -0.226200
      7 NAP         -2.0450     0.0020     0.9150 na         1 ZX5       0.353600
      8 CAJ         -2.2150     0.0010    -0.4430 cc         1 ZX5      -0.267100
      9 CAR         -1.0190     0.0050    -1.0530 cd         1 ZX5      -0.153400
     10 CAL         -0.7710     0.0120    -2.5390 c3         1 ZX5       0.083800
     11 CAK         -0.5640    -1.4230    -3.0280 c3         1 ZX5      -0.098400
     12 CAQ         -0.3170    -1.4160    -4.5150 c          1 ZX5       0.572100
     13 OAB         -0.3060    -0.3670    -5.1230 o          1 ZX5      -0.645100
     14 NAN         -0.1070    -2.5760    -5.1680 ns         1 ZX5      -0.208900
     15 CAM          0.1340    -2.5690    -6.6130 c3         1 ZX5       0.054000
     16 CAV          0.3410    -4.0040    -7.1020 c3         1 ZX5       0.095500
     17 NAO         -0.8080    -4.8280    -6.7040 n7         1 ZX5      -0.559200
     18 CAU         -0.6290    -6.2250    -7.1180 c3         1 ZX5       0.107500
     19 CAA         -1.8250    -7.0540    -6.6460 c3         1 ZX5       0.005900
     20 CAW         -0.5290    -6.2970    -8.6430 c3         1 ZX5       0.178100
     21 OAC         -1.7340    -5.7940    -9.2240 oh         1 ZX5      -0.556800
     22 CAY          0.6570    -5.4500    -9.1130 c3         1 ZX5       0.148100
     23 OAE          0.7210    -5.4670   -10.5410 oh         1 ZX5      -0.575800
     24 CAX          0.4700    -4.0100    -8.6270 c3         1 ZX5       0.187100
     25 OAD          1.6010    -3.2250    -9.0130 oh         1 ZX5      -0.590800
     26 HAI          1.9400    -0.0010    -0.9370 ha         1 ZX5       0.102000
     27 HAG          3.1570    -0.0000     1.1860 ha         1 ZX5       0.102000
     28 HAF          1.9380     0.0010     3.3250 ha         1 ZX5       0.099000
     29 HAH         -0.5190     0.0020     3.3620 ha         1 ZX5       0.098000
     30 HNAP        -2.7870    -0.0010     1.5870 hn         1 ZX5       0.112700
     31 HAJ         -3.1720    -0.0010    -0.9500 h4         1 ZX5       0.142000
     32 HAL         -1.6240     0.4470    -3.0450 hc         1 ZX5       0.029700
     33 HALA         0.1140     0.5980    -2.7550 hc         1 ZX5       0.029700
     34 HAK          0.2900    -1.8580    -2.5220 hc         1 ZX5       0.028200
     35 HAKA        -1.4490    -2.0090    -2.8120 hc         1 ZX5       0.028200
     36 HNAN        -0.0690    -3.4370    -4.6590 hn         1 ZX5       0.169500
     37 HAM          1.0200    -1.9830    -6.8290 h1         1 ZX5       0.039700
     38 HAMA        -0.7190    -2.1350    -7.1200 h1         1 ZX5       0.039700
     39 HAV          1.2440    -4.4120    -6.6640 h1         1 ZX5       0.012700
     40 HNAO        -0.9200    -4.7870    -5.7100 hn         1 ZX5       0.252800
     41 HAU          0.2820    -6.6160    -6.6800 h1         1 ZX5       0.005700
     42 HAA         -2.7440    -6.5440    -6.9080 hc         1 ZX5       0.010367
     43 HAAA        -1.8030    -8.0260    -7.1240 hc         1 ZX5       0.010367
     44 HAAB        -1.7760    -7.1800    -5.5710 hc         1 ZX5       0.010367
     45 HAW         -0.3790    -7.3260    -8.9460 h1         1 ZX5       0.003700
     46 HOAC        -2.0860    -6.4340    -9.8210 ho         1 ZX5       0.386000
     47 HAY          1.5730    -5.8540    -8.7000 h1         1 ZX5       0.010700
     48 HOAE         1.4850    -5.9460   -10.8160 ho         1 ZX5       0.389000
     49 HAX         -0.4300    -3.5960    -9.0650 h1         1 ZX5       0.044700
     50 HOAD         1.3580    -2.6520    -9.7220 ho         1 ZX5       0.402000
@<TRIPOS>BOND
     1     1     2 ar  
     2     1     6 ar  
     3     1     9 1   
     4     2     3 ar  
     5     2    26 1   
     6     3     4 ar  
     7     3    27 1   
     8     4     5 ar  
     9     4    28 1   
    10     5     6 ar  
    11     5    29 1   
    12     6     7 1   
    13     7     8 1   
    14     7    30 1   
    15     8     9 2   
    16     8    31 1   
    17     9    10 1   
    18    10    11 1   
    19    10    32 1   
    20    10    33 1   
    21    11    12 1   
    22    11    34 1   
    23    11    35 1   
    24    12    13 2   
    25    12    14 1   
    26    14    15 1   
    27    14    36 1   
    28    15    16 1   
    29    15    37 1   
    30    15    38 1   
    31    16    17 1   
    32    16    24 1   
    33    16    39 1   
    34    17    18 1   
    35    17    40 1   
    36    18    19 1   
    37    18    20 1   
    38    18    41 1   
    39    19    42 1   
    40    19    43 1   
    41    19    44 1   
    42    20    21 1   
    43    20    22 1   
    44    20    45 1   
    45    21    46 1   
    46    22    23 1   
    47    22    24 1   
    48    22    47 1   
    49    23    48 1   
    50    24    25 1   
    51    24    49 1   
    52    25    50 1   
@<TRIPOS>SUBSTRUCTURE
     1 ZX5         1 TEMP              0 ****  ****    0 ROOT
