@<TRIPOS>MOLECULE
molecule
   47    49     1     0     0
SMALL
bcc


@<TRIPOS>ATOM
      1 CAS          0.0000     0.0000     0.0000 ca         1 ZX6      -0.083800
      2 CAI          1.3960     0.0000     0.0000 ca         1 ZX6      -0.075000
      3 CAG          2.0750     0.0000     1.1860 ca         1 ZX6      -0.158000
      4 CAF          1.3860    -0.0010     2.3910 ca         1 ZX6      -0.110000
      5 CAH          0.0090    -0.0020     2.4140 ca         1 ZX6      -0.144000
      6 CAR         -0.7020    -0.0020     1.2190 ca         1 ZX6      -0.036200
      7 NAO         -2.0450    -0.0010     0.9150 na         1 ZX6      -0.182400
      8 CAJ         -2.2140    -0.0010    -0.4430 cc         1 ZX6      -0.084100
      9 CAQ         -1.0190     0.0050    -1.0530 cd         1 ZX6      -0.137400
     10 CAL         -0.7710     0.0140    -2.5400 c3         1 ZX6      -0.075200
     11 CAP         -0.5670    -1.4000    -3.0220 c          1 ZX6       0.650100
     12 OAB         -0.6160    -2.3220    -2.2370 o          1 ZX6      -0.597100
     13 NAM         -0.3280    -1.6380    -4.3270 ns         1 ZX6      -0.585900
     14 CAK         -0.1290    -3.0110    -4.7970 c3         1 ZX6       0.125000
     15 CAU          0.1230    -3.0030    -6.3060 c3         1 ZX6       0.147500
     16 NAN          1.2490    -2.1120    -6.6100 n7         1 ZX6      -0.806200
     17 CAT          1.4980    -2.0420    -8.0550 c3         1 ZX6       0.158500
     18 CAA          2.6480    -1.0720    -8.3290 c3         1 ZX6      -0.085100
     19 CAV          1.8680    -3.4330    -8.5770 c3         1 ZX6       0.092100
     20 OAC          3.0580    -3.8850    -7.9260 oh         1 ZX6      -0.598800
     21 CAX          0.7230    -4.4060    -8.2830 c3         1 ZX6       0.109100
     22 OAE          1.0870    -5.7170    -8.7170 oh         1 ZX6      -0.599800
     23 CAW          0.4520    -4.4210    -6.7760 c3         1 ZX6       0.117100
     24 OAD         -0.6520    -5.2840    -6.4990 oh         1 ZX6      -0.605800
     25 HAI          1.9390     0.0010    -0.9370 ha         1 ZX6       0.128000
     26 HAG          3.1580     0.0010     1.1860 ha         1 ZX6       0.126000
     27 HAF          1.9380    -0.0010     3.3230 ha         1 ZX6       0.127000
     28 HAH         -0.5190    -0.0030     3.3610 ha         1 ZX6       0.123000
     29 HNAO        -2.7870    -0.0050     1.5870 hn         1 ZX6       0.294700
     30 HAJ         -3.1710    -0.0030    -0.9500 h4         1 ZX6       0.163000
     31 HAL          0.1140     0.6000    -2.7550 hc         1 ZX6       0.061200
     32 HALA        -1.6240     0.4490    -3.0460 hc         1 ZX6       0.061200
     33 HNAM        -0.3220    -0.8800    -4.9810 hn         1 ZX6       0.322500
     34 HAK          0.7250    -3.4450    -4.2910 h1         1 ZX6       0.060700
     35 HAKA        -1.0130    -3.5980    -4.5820 h1         1 ZX6       0.060700
     36 HAU         -0.7620    -2.6510    -6.8210 h1         1 ZX6       0.073700
     37 HNAN         2.0720    -2.4420    -6.1450 hn         1 ZX6       0.377800
     38 HAT          0.6020    -1.6980    -8.5570 h1         1 ZX6       0.065700
     39 HAA          2.9160    -1.1170    -9.3780 hc         1 ZX6       0.044033
     40 HAAA         3.5040    -1.3470    -7.7260 hc         1 ZX6       0.044033
     41 HAAB         2.3380    -0.0640    -8.0790 hc         1 ZX6       0.044033
     42 HAV          2.0320    -3.3840    -9.6470 h1         1 ZX6       0.039700
     43 HOAC         3.6750    -4.1850    -8.5730 ho         1 ZX6       0.412000
     44 HAX         -0.1690    -4.0810    -8.8050 h1         1 ZX6       0.048700
     45 HOAE         0.5990    -5.9380    -9.4940 ho         1 ZX6       0.405000
     46 HAW          1.3340    -4.7770    -6.2560 h1         1 ZX6       0.065700
     47 HOAD        -0.3340    -6.1500    -6.3020 ho         1 ZX6       0.415000
@<TRIPOS>BOND
     1     1     2 ar
     2     1     6 ar
     3     1     9 1
     4     2     3 ar
     5     3     4 ar
     6     4     5 ar
     7     5     6 ar
     8     6     7 1
     9     7     8 1
    10     8     9 2
    11     9    10 1
    12    10    11 1
    13    11    12 2
    14    11    13 1
    15    13    14 1
    16    14    15 1
    17    15    16 1
    18    15    23 1
    19    16    17 1
    20    17    18 1
    21    17    19 1
    22    19    20 1
    23    19    21 1
    24    21    22 1
    25    21    23 1
    26    23    24 1
    27     2    25 1
    28     3    26 1
    29     4    27 1
    30     5    28 1
    31     7    29 1
    32     8    30 1
    33    10    31 1
    34    10    32 1
    35    13    33 1
    36    14    34 1
    37    14    35 1
    38    15    36 1
    39    16    37 1
    40    17    38 1
    41    18    39 1
    42    18    40 1
    43    18    41 1
    44    19    42 1
    45    20    43 1
    46    21    44 1
    47    22    45 1
    48    23    46 1
    49    24    47 1
@<TRIPOS>SUBSTRUCTURE
     1 ZX6         1 TEMP              0 ****  ****    0 ROOT
