@<TRIPOS>MOLECULE
ZX7
   44    46     1     0     0
SMALL
bcc


@<TRIPOS>ATOM
      1 OAD          0.0000     0.0000     0.0000 oh         1 ZX7      -0.590800
      2 CAV          1.4290     0.0000     0.0000 c3         1 ZX7       0.188100
      3 CAW          1.9400     0.0000     1.4430 c3         1 ZX7       0.145100
      4 OAE          1.5130     1.1940     2.1010 oh         1 ZX7      -0.576800
      5 CAU          3.4710    -0.0610     1.4340 c3         1 ZX7       0.178100
      6 OAC          3.9900     1.1040     0.7890 oh         1 ZX7      -0.556800
      7 CAS          3.9230    -1.3100     0.6750 c3         1 ZX7       0.109500
      8 CAA          5.4520    -1.3630     0.6470 c3         1 ZX7       0.005900
      9 NAM          3.4090    -1.2620    -0.7000 n7         1 ZX7      -0.557200
     10 CAT          1.9400    -1.2520    -0.7180 c3         1 ZX7       0.095500
     11 CAK          1.4490    -1.2450    -2.1660 c3         1 ZX7       0.057000
     12 NAL          2.0350    -2.3790    -2.8860 ns         1 ZX7      -0.209900
     13 CAO          1.7420    -2.5750    -4.1860 c          1 ZX7       0.628300
     14 OAB          0.9900    -1.8120    -4.7630 o          1 ZX7      -0.630100
     15 CAP          2.3300    -3.7140    -4.9080 cc         1 ZX7      -0.342300
     16 CAJ          2.1100    -4.0160    -6.2150 cd         1 ZX7      -0.058200
     17 CAQ          2.8580    -5.1780    -6.5200 ca         1 ZX7      -0.123800
     18 CAH          3.0230    -5.9390    -7.6850 ca         1 ZX7      -0.029000
     19 CAF          3.8330    -7.0380    -7.6700 ca         1 ZX7      -0.137000
     20 CAG          4.4970    -7.4110    -6.5090 ca         1 ZX7      -0.073000
     21 CAI          4.3510    -6.6810    -5.3510 ca         1 ZX7      -0.112000
     22 CAR          3.5320    -5.5560    -5.3410 ca         1 ZX7      -0.218200
     23 NAN          3.1980    -4.6430    -4.3680 na         1 ZX7       0.364600
     24 HOAD        -0.3140     0.8640    -0.2100 ho         1 ZX7       0.403000
     25 HAV          1.7950     0.8820    -0.5110 h1         1 ZX7       0.044700
     26 HAW          1.5490    -0.8650     1.9640 h1         1 ZX7       0.010700
     27 HOAE         1.1140     0.9730     2.9260 ho         1 ZX7       0.390000
     28 HAU          3.8350    -0.1080     2.4530 h1         1 ZX7       0.003700
     29 HOAC         4.3930     1.6650     1.4300 ho         1 ZX7       0.388000
     30 HAS          3.5360    -2.1910     1.1720 h1         1 ZX7       0.004700
     31 HAA          5.8350    -1.2570     1.6550 hc         1 ZX7       0.011033
     32 HAAA         5.7720    -2.3130     0.2370 hc         1 ZX7       0.011033
     33 HAAB         5.8300    -0.5570     0.0300 hc         1 ZX7       0.011033
     34 HNAM         3.7430    -2.0560    -1.2090 hn         1 ZX7       0.248800
     35 HAT          1.5690    -2.1340    -0.2100 h1         1 ZX7       0.012700
     36 HAK          1.7480    -0.3200    -2.6450 h1         1 ZX7       0.042700
     37 HAKA         0.3690    -1.3270    -2.1810 h1         1 ZX7       0.042700
     38 HNAL         2.6210    -3.0290    -2.4020 hn         1 ZX7       0.161500
     39 HAJ          1.4090    -3.5190    -6.8740 ha         1 ZX7       0.143000
     40 HAH          2.5090    -5.6560    -8.5950 ha         1 ZX7       0.102000
     41 HAF          3.9590    -7.6240    -8.5730 ha         1 ZX7       0.104000
     42 HAG          5.1360    -8.2860    -6.5140 ha         1 ZX7       0.100000
     43 HAI          4.8730    -6.9800    -4.4510 ha         1 ZX7       0.098000
     44 HNAN         3.5290    -4.6510    -3.4240 hn         1 ZX7       0.109700
@<TRIPOS>BOND
     1     1     2 1   
     2     1    24 1   
     3     2     3 1   
     4     2    10 1   
     5     2    25 1   
     6     3     4 1   
     7     3     5 1   
     8     3    26 1   
     9     4    27 1   
    10     5     6 1   
    11     5     7 1   
    12     5    28 1   
    13     6    29 1   
    14     7     8 1   
    15     7     9 1   
    16     7    30 1   
    17     8    31 1   
    18     8    32 1   
    19     8    33 1   
    20     9    10 1   
    21     9    34 1   
    22    10    11 1   
    23    10    35 1   
    24    11    12 1   
    25    11    36 1   
    26    11    37 1   
    27    12    13 1   
    28    12    38 1   
    29    13    14 2   
    30    13    15 1   
    31    15    16 2   
    32    15    23 1   
    33    16    17 1   
    34    16    39 1   
    35    17    18 ar  
    36    17    22 ar  
    37    18    19 ar  
    38    18    40 1   
    39    19    20 ar  
    40    19    41 1   
    41    20    21 ar  
    42    20    42 1   
    43    21    22 ar  
    44    21    43 1   
    45    22    23 1   
    46    23    44 1   
@<TRIPOS>SUBSTRUCTURE
     1 ZX7         1 TEMP              0 ****  ****    0 ROOT
