@<TRIPOS>MOLECULE
ZX8
   44    46     1     0     0
SMALL
bcc


@<TRIPOS>ATOM
      1 CAJ         0.2200   -1.0630    0.0420 cc        1 ZX8      0.059800
      2 CAQ         1.1260    0.0570    0.0720 ca        1 ZX8     -0.163800
      3 CAH         1.8690    0.6960    1.0690 ca        1 ZX8     -0.035000
      4 CAF         2.6570    1.7820    0.7040 ca        1 ZX8     -0.143000
      5 CAG         2.7170    2.2390   -0.6250 ca        1 ZX8     -0.049000
      6 CAI         1.9900    1.6290   -1.6460 ca        1 ZX8     -0.137000
      7 CAR         1.2050    0.5430   -1.2730 ca        1 ZX8      0.116100
      8 OAN         0.3970   -0.2200   -2.1190 os        1 ZX8     -0.221200
      9 CAP        -0.1950   -1.2000   -1.2760 cd        1 ZX8     -0.157100
     10 CAO        -1.0870   -2.1530   -1.8710 c         1 ZX8      0.596300
     11 OAB        -1.6860   -3.0700   -1.3180 o         1 ZX8     -0.434100
     12 NAL        -1.3150   -2.0300   -3.3620 n4        1 ZX8     -0.657800
     13 CAK        -2.3390   -0.9870   -3.6630 c3        1 ZX8      0.111800
     14 CAT        -2.5520   -0.8080   -5.1810 c3        1 ZX8      0.142500
     15 NAM        -2.9080   -2.0600   -5.8330 n3        1 ZX8     -0.819200
     16 CAS        -3.1590   -1.8770   -7.2640 c3        1 ZX8      0.176500
     17 CAA        -3.5720   -3.1780   -7.9430 c3        1 ZX8     -0.094100
     18 CAU        -4.2320   -0.7920   -7.5440 c3        1 ZX8      0.079100
     19 OAC        -5.4580   -1.2630   -7.0100 oh        1 ZX8     -0.597800
     20 CAW        -3.8260    0.5340   -6.8780 c3        1 ZX8      0.067100
     21 OAE        -4.8890    1.4710   -6.9630 oh        1 ZX8     -0.603800
     22 CAV        -3.5890    0.3280   -5.3700 c3        1 ZX8      0.125100
     23 OAD        -3.0380    1.4860   -4.7730 oh        1 ZX8     -0.612800
     24 HAJ        -0.0800   -1.6810    0.8920 ha        1 ZX8      0.199000
     25 HAH         1.8290    0.3460    2.1120 ha        1 ZX8      0.163000
     26 HAF         3.2530    2.3020    1.4730 ha        1 ZX8      0.163000
     27 HAG         3.3570    3.1050   -0.8650 ha        1 ZX8      0.163000
     28 HAI         2.0330    1.9840   -2.6850 ha        1 ZX8      0.168000
     29 HNAL       -0.4330   -1.7740   -3.8220 hn        1 ZX8      0.469800
     30 HAK        -1.9830   -0.0010   -3.2380 hx        1 ZX8      0.122200
     31 HAKA       -3.3000   -1.2870   -3.1570 hx        1 ZX8      0.122200
     32 HAT        -1.5800   -0.4510   -5.6410 h1        1 ZX8      0.087700
     33 HNAM       -3.7370   -2.4470   -5.4100 hn        1 ZX8      0.375800
     34 HAS        -2.1940   -1.5140   -7.7280 h1        1 ZX8      0.067700
     35 HAA        -3.6490   -3.0000   -9.0420 hc        1 ZX8      0.058700
     36 HAAA       -2.8170   -3.9800   -7.7610 hc        1 ZX8      0.058700
     37 HAAB       -4.5680   -3.5200   -7.5680 hc        1 ZX8      0.058700
     38 HAU        -4.3360   -0.6430   -8.6540 h1        1 ZX8      0.063700
     39 HOAC       -6.0940   -0.5370   -7.0820 ho        1 ZX8      0.428000
     40 HAW        -2.8980    0.9440   -7.3610 h1        1 ZX8      0.065700
     41 HOAE       -4.9280    1.7780   -7.8770 ho        1 ZX8      0.426000
     42 HAV        -4.5670    0.0670   -4.8760 h1        1 ZX8      0.074700
     43 HOAD       -3.6170    2.2250   -5.0110 ho        1 ZX8      0.444000
     44 HAL2       -1.6300   -2.9390   -3.7310 hn        1 ZX8      0.469800
@<TRIPOS>BOND
     1    1    2 1   
     2    1    9 2   
     3    1   24 1   
     4    2    3 ar  
     5    2    7 ar  
     6    3    4 ar  
     7    3   25 1   
     8    4    5 ar  
     9    4   26 1   
    10    5    6 ar  
    11    5   27 1   
    12    6    7 ar  
    13    6   28 1   
    14    7    8 1   
    15    8    9 1   
    16    9   10 1   
    17   10   11 2   
    18   10   12 1   
    19   12   13 1   
    20   12   29 1   
    21   12   44 1   
    22   13   14 1   
    23   13   30 1   
    24   13   31 1   
    25   14   15 1   
    26   14   22 1   
    27   14   32 1   
    28   15   16 1   
    29   15   33 1   
    30   16   17 1   
    31   16   18 1   
    32   16   34 1   
    33   17   35 1   
    34   17   36 1   
    35   17   37 1   
    36   18   19 1   
    37   18   20 1   
    38   18   38 1   
    39   19   39 1   
    40   20   21 1   
    41   20   22 1   
    42   20   40 1   
    43   21   41 1   
    44   22   23 1   
    45   22   42 1   
    46   23   43 1   
@<TRIPOS>SUBSTRUCTURE
     1 ZX8         1 TEMP              0 ****  ****    0 ROOT
