@<TRIPOS>MOLECULE
ZX9
   56    58     1     0     0
SMALL
bcc


@<TRIPOS>ATOM
      1 CAI          0.0000     0.0000     0.0000 ca         1 ZX9      -0.084500
      2 CAG          1.3820     0.0000     0.0000 ca         1 ZX9      -0.105000
      3 CAF          2.0720     0.0000     1.1960 ca         1 ZX9      -0.100000
      4 CAH          1.3810     0.0010     2.3940 ca         1 ZX9      -0.105000
      5 CAJ         -0.0010     0.0020     2.3930 ca         1 ZX9      -0.084500
      6 CAS         -0.6920     0.0010     1.1970 ca         1 ZX9      -0.085300
      7 CAZ         -2.1990     0.0010     1.1970 c3         1 ZX9      -0.053400
      8 CAX         -2.7080     1.2500     1.9180 c3         1 ZX9      -0.040700
      9 CAM         -4.2490     1.3110     1.8680 c3         1 ZX9      -0.028900
     10 CAK         -4.6250     2.7930     1.6820 c3         1 ZX9      -0.023900
     11 CAL         -3.2980     3.5790     1.6260 c3         1 ZX9      -0.023900
     12 CAN         -2.2530     2.5290     1.1720 c3         1 ZX9      -0.028900
     13 CAR         -2.7020    -1.2300     1.9070 c          1 ZX9       0.582100
     14 OAB         -2.1080    -1.6560     2.8740 o          1 ZX9      -0.640100
     15 NAP         -3.8110    -1.8560     1.4660 ns         1 ZX9      -0.206900
     16 CAO         -4.3630    -2.9850     2.2200 c3         1 ZX9       0.052000
     17 CAY         -5.6120    -3.5090     1.5110 c3         1 ZX9       0.094500
     18 NAQ         -5.2820    -3.8400     0.1180 n7         1 ZX9      -0.559200
     19 CAT         -6.4660    -4.3100    -0.6110 c3         1 ZX9       0.109500
     20 CAA         -6.0880    -4.6010    -2.0640 c3         1 ZX9       0.005900
     21 CAU         -6.9970    -5.5880     0.0430 c3         1 ZX9       0.176100
     22 OAC         -5.9930    -6.6020    -0.0080 oh         1 ZX9      -0.555800
     23 CAV         -7.3560    -5.2960     1.5030 c3         1 ZX9       0.147100
     24 OAD         -7.7980    -6.4990     2.1340 oh         1 ZX9      -0.575800
     25 CAW         -6.1180    -4.7630     2.2280 c3         1 ZX9       0.189100
     26 OAE         -6.4590    -4.4360     3.5760 oh         1 ZX9      -0.589800
     27 HAI         -0.5410    -0.0010    -0.9380 ha         1 ZX9       0.114500
     28 HAG          1.9230    -0.0010    -0.9380 ha         1 ZX9       0.101500
     29 HAF          3.1560    -0.0000     1.1960 ha         1 ZX9       0.100000
     30 HAH          1.9230     0.0020     3.3320 ha         1 ZX9       0.101500
     31 HAJ         -0.5430     0.0030     3.3310 ha         1 ZX9       0.114500
     32 HAZ         -2.5600     0.0020     0.1750 hc         1 ZX9       0.032700
     33 HAX         -2.3640     1.2700     2.9450 hc         1 ZX9       0.049700
     34 HAM         -4.6150     0.7290     1.0300 hc         1 ZX9       0.017450
     35 HAMA        -4.6640     0.9380     2.7960 hc         1 ZX9       0.017450
     36 HAK         -5.2200     3.1310     2.5220 hc         1 ZX9       0.013950
     37 HAKA        -5.1710     2.9230     0.7560 hc         1 ZX9       0.013950
     38 HAL         -3.0460     3.9640     2.6060 hc         1 ZX9       0.013950
     39 HALA        -3.3660     4.3820     0.9020 hc         1 ZX9       0.013950
     40 HAN         -1.2580     2.8210     1.4860 hc         1 ZX9       0.017450
     41 HANA        -2.2990     2.3830     0.1000 hc         1 ZX9       0.017450
     42 HNAP        -4.2580    -1.5500     0.6250 hn         1 ZX9       0.173500
     43 HAO         -4.6250    -2.6580     3.2190 h1         1 ZX9       0.040200
     44 HAOA        -3.6240    -3.7740     2.2810 h1         1 ZX9       0.040200
     45 HAY         -6.3860    -2.7510     1.5260 h1         1 ZX9       0.012700
     46 HNAQ        -4.9090    -3.0310    -0.3380 hn         1 ZX9       0.252800
     47 HAT         -7.2330    -3.5450    -0.5790 h1         1 ZX9       0.004700
     48 HAA         -5.2100    -5.2350    -2.0890 hc         1 ZX9       0.010700
     49 HAAA        -6.9100    -5.1040    -2.5580 hc         1 ZX9       0.010700
     50 HAAB        -5.8750    -3.6700    -2.5760 hc         1 ZX9       0.010700
     51 HAU         -7.8820    -5.9210    -0.4850 h1         1 ZX9       0.002700
     52 HOAC        -6.3680    -7.4000    -0.3420 ho         1 ZX9       0.387000
     53 HAV         -8.1430    -4.5520     1.5390 h1         1 ZX9       0.010700
     54 HOAD        -8.7330    -6.4640     2.2570 ho         1 ZX9       0.389000
     55 HAW         -5.3420    -5.5200     2.2200 h1         1 ZX9       0.044700
     56 HOAE        -6.0560    -5.0560     4.1620 ho         1 ZX9       0.402000
@<TRIPOS>BOND
     1     1     2 ar  
     2     1     6 ar  
     3     1    27 1   
     4     2     3 ar  
     5     2    28 1   
     6     3     4 ar  
     7     3    29 1   
     8     4     5 ar  
     9     4    30 1   
    10     5     6 ar  
    11     5    31 1   
    12     6     7 1   
    13     7     8 1   
    14     7    13 1   
    15     7    32 1   
    16     8     9 1   
    17     8    12 1   
    18     8    33 1   
    19     9    10 1   
    20     9    34 1   
    21     9    35 1   
    22    10    11 1   
    23    10    36 1   
    24    10    37 1   
    25    11    12 1   
    26    11    38 1   
    27    11    39 1   
    28    12    40 1   
    29    12    41 1   
    30    13    14 2   
    31    13    15 1   
    32    15    16 1   
    33    15    42 1   
    34    16    17 1   
    35    16    43 1   
    36    16    44 1   
    37    17    18 1   
    38    17    25 1   
    39    17    45 1   
    40    18    19 1   
    41    18    46 1   
    42    19    20 1   
    43    19    21 1   
    44    19    47 1   
    45    20    48 1   
    46    20    49 1   
    47    20    50 1   
    48    21    22 1   
    49    21    23 1   
    50    21    51 1   
    51    22    52 1   
    52    23    24 1   
    53    23    25 1   
    54    23    53 1   
    55    24    54 1   
    56    25    26 1   
    57    25    55 1   
    58    26    56 1   
@<TRIPOS>SUBSTRUCTURE
     1 ZX9         1 TEMP              0 ****  ****    0 ROOT
