@<TRIPOS>MOLECULE
ZXA
   33    33     1     0     0
SMALL
bcc


@<TRIPOS>ATOM
      1 CAA          0.0000     0.0000     0.0000 c3         1 ZXA      -0.068100
      2 CAJ          1.5060     0.0000     0.0000 c          1 ZXA       0.572100
      3 OAC          2.1140     0.0000     1.0490 o          1 ZXA      -0.643100
      4 NAH          2.1800    -0.0000    -1.1680 ns         1 ZXA      -0.209900
      5 CAG          3.6450    -0.0000    -1.1680 c3         1 ZXA       0.054000
      6 CAL          4.1550    -0.0010    -2.6120 c3         1 ZXA       0.095500
      7 NAI          3.5690     1.1330    -3.3370 n7         1 ZXA      -0.559200
      8 CAK          4.0000     1.1460    -4.7400 c3         1 ZXA       0.108500
      9 CAB          3.3340     2.3140    -5.4690 c3         1 ZXA       0.005900
     10 CAM          5.5210     1.3040    -4.8060 c3         1 ZXA       0.174100
     11 OAD          5.8990     2.5410    -4.1980 oh         1 ZXA      -0.555800
     12 CAO          6.1840     0.1430    -4.0600 c3         1 ZXA       0.147100
     13 OAF          7.6020     0.3160    -4.0690 oh         1 ZXA      -0.574800
     14 CAN          5.6800     0.1240    -2.6140 c3         1 ZXA       0.191100
     15 OAE          6.2500    -0.9900    -1.9250 oh         1 ZXA      -0.589800
     16 HAA         -0.3610     0.0040     1.0210 hc         1 ZXA       0.021367
     17 HAAA        -0.3610    -0.8860    -0.5070 hc         1 ZXA       0.021367
     18 HAAB        -0.3610     0.8830    -0.5140 hc         1 ZXA       0.021367
     19 HNAH         1.6800    -0.0570    -2.0330 hn         1 ZXA       0.169500
     20 HAG          4.0060    -0.8840    -0.6570 h1         1 ZXA       0.040200
     21 HAGA         4.0060     0.8850    -0.6580 h1         1 ZXA       0.040200
     22 HAL          3.8690    -0.9250    -3.0990 h1         1 ZXA       0.012700
     23 HNAI         2.5710     1.0760    -3.2950 hn         1 ZXA       0.252800
     24 HAK          3.7160     0.2130    -5.2110 h1         1 ZXA       0.004700
     25 HAB          2.2880     2.0880    -5.6350 hc         1 ZXA       0.010700
     26 HABA         3.8250     2.4730    -6.4220 hc         1 ZXA       0.010700
     27 HABB         3.4180     3.2110    -4.8660 hc         1 ZXA       0.010700
     28 HAM          5.8390     1.2940    -5.8420 h1         1 ZXA       0.002700
     29 HOAD         6.4470     3.0280    -4.7900 ho         1 ZXA       0.386000
     30 HAO          5.9250    -0.7910    -4.5440 h1         1 ZXA       0.010700
     31 HOAF         7.9850    -0.2610    -4.7090 ho         1 ZXA       0.388000
     32 HAN          5.9670     1.0450    -2.1210 h1         1 ZXA       0.044700
     33 HOAE         6.9120    -0.6850    -1.3260 ho         1 ZXA       0.402000
@<TRIPOS>BOND
     1     1     2 1   
     2     1    16 1   
     3     1    17 1   
     4     1    18 1   
     5     2     3 2   
     6     2     4 1   
     7     4     5 1   
     8     4    19 1   
     9     5     6 1   
    10     5    20 1   
    11     5    21 1   
    12     6     7 1   
    13     6    14 1   
    14     6    22 1   
    15     7     8 1   
    16     7    23 1   
    17     8     9 1   
    18     8    10 1   
    19     8    24 1   
    20     9    25 1   
    21     9    26 1   
    22     9    27 1   
    23    10    11 1   
    24    10    12 1   
    25    10    28 1   
    26    11    29 1   
    27    12    13 1   
    28    12    14 1   
    29    12    30 1   
    30    13    31 1   
    31    14    15 1   
    32    14    32 1   
    33    15    33 1   
@<TRIPOS>SUBSTRUCTURE
     1 ZXA         1 TEMP              0 ****  ****    0 ROOT
