@<TRIPOS>MOLECULE
molecule
   33    34     1     0     0
SMALL
bcc


@<TRIPOS>ATOM
      1 CAG          0.0000     0.0000     0.0000 ca         1 ZXB      -0.127000
      2 CAE          1.3830     0.0000     0.0000 ca         1 ZXB      -0.127500
      3 CAD          2.0730     0.0000     1.1970 ca         1 ZXB      -0.130000
      4 CAF          1.3820     0.0010     2.3940 ca         1 ZXB      -0.127500
      5 CAH         -0.0010     0.0020     2.3940 ca         1 ZXB      -0.127000
      6 CAL         -0.6910    -0.0000     1.1970 ca         1 ZXB      -0.092300
      7 CAJ         -2.1980    -0.0000     1.1960 c3         1 ZXB      -0.031100
      8 CAP         -2.7090    -1.4430     1.1960 c3         1 ZXB       0.166500
      9 NAK         -2.3200    -2.0990    -0.0590 n7         1 ZXB      -0.805200
     10 CAI         -2.7560    -3.5010    -0.0810 c3         1 ZXB       0.140800
     11 CAM         -4.2810    -3.5640     0.0070 c3         1 ZXB       0.145100
     12 OAA         -4.7030    -4.9290     0.0060 oh         1 ZXB      -0.609800
     13 CAN         -4.7410    -2.8880     1.3030 c3         1 ZXB       0.128100
     14 OAB         -6.1690    -2.8940     1.3640 oh         1 ZXB      -0.595800
     15 CAO         -4.2340    -1.4440     1.3230 c3         1 ZXB       0.144100
     16 OAC         -4.8040    -0.7210     0.2300 oh         1 ZXB      -0.576800
     17 HAG         -0.5420    -0.0010    -0.9380 ha         1 ZXB       0.135500
     18 HAE          1.9250    -0.0000    -0.9380 ha         1 ZXB       0.130000
     19 HAD          3.1570    -0.0000     1.1970 ha         1 ZXB       0.129000
     20 HAF          1.9240     0.0020     3.3330 ha         1 ZXB       0.130000
     21 HAH         -0.5430     0.0020     3.3320 ha         1 ZXB       0.135500
     22 HAJ         -2.5600     0.5110     2.0800 hc         1 ZXB       0.063200
     23 HAJA        -2.5590     0.5100     0.3110 hc         1 ZXB       0.063200
     24 HAP         -2.2790    -1.9820     2.0320 h1         1 ZXB       0.028700
     25 HNAK        -1.3250    -2.0570    -0.1630 hn         1 ZXB       0.365800
     26 HAI         -2.4300    -3.9640    -1.0040 h1         1 ZXB       0.040200
     27 HAIA        -2.3250    -4.0250     0.7630 h1         1 ZXB       0.040200
     28 HAM         -4.7120    -3.0460    -0.8410 h1         1 ZXB       0.076700
     29 HOAA        -5.0620    -5.1460    -0.8390 ho         1 ZXB       0.408000
     30 HAN         -4.3360    -3.4240     2.1530 h1         1 ZXB       0.043700
     31 HOAB        -6.4470    -3.2640     2.1850 ho         1 ZXB       0.402000
     32 HAO         -4.5170    -0.9760     2.2580 h1         1 ZXB       0.035700
     33 HOAC        -5.4520    -0.1190     0.5550 ho         1 ZXB       0.400000
@<TRIPOS>BOND
     1     1     2 ar
     2     1     6 ar
     3     2     3 ar
     4     3     4 ar
     5     4     5 ar
     6     5     6 ar
     7     6     7 1
     8     7     8 1
     9     8     9 1
    10     8    15 1
    11     9    10 1
    12    10    11 1
    13    11    12 1
    14    11    13 1
    15    13    14 1
    16    13    15 1
    17    15    16 1
    18     1    17 1
    19     2    18 1
    20     3    19 1
    21     4    20 1
    22     5    21 1
    23     7    22 1
    24     7    23 1
    25     8    24 1
    26     9    25 1
    27    10    26 1
    28    10    27 1
    29    11    28 1
    30    12    29 1
    31    13    30 1
    32    14    31 1
    33    15    32 1
    34    16    33 1
@<TRIPOS>SUBSTRUCTURE
     1 ZXB         1 TEMP              0 ****  ****    0 ROOT
