@<TRIPOS>MOLECULE
ZXC
   24    26     1     0     0
SMALL
bcc


@<TRIPOS>ATOM
      1 C1           0.0000     0.0000     0.0000 ca         1 ZXC      -0.220200
      2 C2           1.4040     0.0000     0.0000 ca         1 ZXC       0.457200
      3 C3          -0.6650     0.0020     1.2390 ca         1 ZXC       0.235800
      4 N4          -0.9520     0.0050    -0.9630 nc         1 ZXC      -0.499100
      5 N5           2.1150    -0.0010    -1.1910 ns         1 ZXC      -0.086400
      6 N6           2.0370     0.0000     1.1690 nb         1 ZXC      -0.637000
      7 N7          -2.0050     0.0030     0.9490 na         1 ZXC       0.178000
      8 N8           0.0530     0.0020     2.3570 nb         1 ZXC      -0.651000
      9 C9          -2.1300     0.0040    -0.4080 cd         1 ZXC       0.234700
     10 C10          3.4620    -0.0020    -1.1730 c          1 ZXC       0.601700
     11 C11          1.3690     0.0020     2.3080 ca         1 ZXC       0.668900
     12 C12          4.2120    -0.0030    -2.4310 cc         1 ZXC      -0.095700
     13 O13          4.0560    -0.0020    -0.1110 o          1 ZXC      -0.561100
     14 C14          5.5750    -0.0040    -2.5420 cd         1 ZXC      -0.035000
     15 S15          3.5050    -0.0120    -4.0400 ss         1 ZXC      -0.224800
     16 C16          6.0150    -0.0050    -3.8450 cd         1 ZXC      -0.145000
     17 C17          5.0470    -0.0080    -4.7690 cc         1 ZXC       0.000900
     18 HN5          1.6270    -0.0010    -2.0650 hn         1 ZXC       0.192500
     19 HN7         -2.7550     0.0010     1.6120 hn         1 ZXC       0.135700
     20 H9          -3.0700     0.0040    -0.9460 h5         1 ZXC       0.032800
     21 H11          1.9250     0.0020     3.2380 h5         1 ZXC       0.002100
     22 H14          6.2420    -0.0020    -1.6880 ha         1 ZXC       0.140000
     23 H16          7.0660    -0.0040    -4.1040 ha         1 ZXC       0.125000
     24 H17          5.2200    -0.0090    -5.8390 h4         1 ZXC       0.151000
@<TRIPOS>BOND
     1     1     2 ar  
     2     1     3 ar  
     3     1     4 1   
     4     2     5 1   
     5     2     6 ar  
     6     3     7 1   
     7     3     8 ar  
     8     4     9 2   
     9     5    10 1   
    10     5    18 1   
    11     6    11 ar  
    12     7     9 1   
    13     7    19 1   
    14     8    11 ar  
    15     9    20 1   
    16    10    12 1   
    17    10    13 2   
    18    11    21 1   
    19    12    14 2   
    20    12    15 1   
    21    14    16 1   
    22    14    22 1   
    23    15    17 1   
    24    16    17 2   
    25    16    23 1   
    26    17    24 1   
@<TRIPOS>SUBSTRUCTURE
     1 ZXC         1 TEMP              0 ****  ****    0 ROOT
