@<TRIPOS>MOLECULE
ZXD
   29    29     1     0     0
SMALL
bcc


@<TRIPOS>ATOM
      1 CAA          0.0000     0.0000     0.0000 c3         1 ZXD       0.006400
      2 CAH          1.5300     0.0000     0.0000 c3         1 ZXD      -0.052700
      3 CAB          2.0400     1.2500    -0.7210 c3         1 ZXD       0.006400
      4 CAL          2.0400     0.0000     1.4430 c3         1 ZXD       0.117500
      5 NAG          3.5050     0.1030     1.4430 n7         1 ZXD      -0.575200
      6 CAF          4.0330     0.1480     2.8130 c3         1 ZXD       0.121800
      7 CAI          3.6720    -1.1470     3.5440 c3         1 ZXD       0.144100
      8 OAC          4.1690    -1.0940     4.8830 oh         1 ZXD      -0.581800
      9 CAJ          2.1480    -1.3040     3.5690 c3         1 ZXD       0.158100
     10 OAD          1.8070    -2.5400     4.2010 oh         1 ZXD      -0.578800
     11 CAK          1.6190    -1.2990     2.1320 c3         1 ZXD       0.133100
     12 OAE          2.1600    -2.4150     1.4210 oh         1 ZXD      -0.581800
     13 HAA         -0.3610     0.3760    -0.9500 hc         1 ZXD       0.004367
     14 HAAA        -0.3610     0.6350     0.8000 hc         1 ZXD       0.004367
     15 HAAB        -0.3610    -1.0100     0.1490 hc         1 ZXD       0.004367
     16 HAH          1.8920    -0.8840    -0.5110 hc         1 ZXD       0.040700
     17 HAB          1.8430     2.1240    -0.1110 hc         1 ZXD       0.004367
     18 HABA         3.1060     1.1600    -0.8890 hc         1 ZXD       0.004367
     19 HABB         1.5310     1.3510    -1.6720 hc         1 ZXD       0.004367
     20 HAL          1.6210     0.8430     1.9780 h1         1 ZXD       0.044700
     21 HNAG         3.8950    -0.6830     0.9600 hn         1 ZXD       0.271800
     22 HAF          3.6000     0.9900     3.3380 h1         1 ZXD       0.029200
     23 HAFA         5.1110     0.2530     2.7790 h1         1 ZXD       0.029200
     24 HAI          4.1120    -1.9890     3.0230 h1         1 ZXD       0.026700
     25 HOAC         4.9400    -1.6320     4.9530 ho         1 ZXD       0.393000
     26 HAJ          1.7100    -0.4790     4.1170 h1         1 ZXD       0.016700
     27 HOAD         1.1920    -2.3770     4.8970 ho         1 ZXD       0.391000
     28 HAK          0.5380    -1.3640     2.1480 h1         1 ZXD       0.015700
     29 HOAE         1.5280    -3.1150     1.4080 ho         1 ZXD       0.400000
@<TRIPOS>BOND
     1     1     2 1   
     2     1    13 1   
     3     1    14 1   
     4     1    15 1   
     5     2     3 1   
     6     2     4 1   
     7     2    16 1   
     8     3    17 1   
     9     3    18 1   
    10     3    19 1   
    11     4     5 1   
    12     4    11 1   
    13     4    20 1   
    14     5     6 1   
    15     5    21 1   
    16     6     7 1   
    17     6    22 1   
    18     6    23 1   
    19     7     8 1   
    20     7     9 1   
    21     7    24 1   
    22     8    25 1   
    23     9    10 1   
    24     9    11 1   
    25     9    26 1   
    26    10    27 1   
    27    11    12 1   
    28    11    28 1   
    29    12    29 1   
@<TRIPOS>SUBSTRUCTURE
     1 ZXD         1 TEMP              0 ****  ****    0 ROOT
