@<TRIPOS>MOLECULE
molecule
   29    29     1     0     0
SMALL
bcc


@<TRIPOS>ATOM
      1 CAA          0.0000     0.0000     0.0000 c3         1 ZXD      -0.084100
      2 CAH          1.5300     0.0000     0.0000 c3         1 ZXD      -0.071700
      3 CAB          2.0400     1.2500    -0.7210 c3         1 ZXD      -0.084100
      4 CAL          2.0400     0.0000     1.4430 c3         1 ZXD       0.170500
      5 NAG          3.5050     0.1030     1.4430 n7         1 ZXD      -0.801200
      6 CAF          4.0330     0.1480     2.8130 c3         1 ZXD       0.136800
      7 CAI          3.6720    -1.1470     3.5440 c3         1 ZXD       0.104100
      8 OAC          4.1690    -1.0940     4.8830 oh         1 ZXD      -0.604800
      9 CAJ          2.1480    -1.3040     3.5690 c3         1 ZXD       0.125100
     10 OAD          1.8070    -2.5400     4.2010 oh         1 ZXD      -0.599800
     11 CAK          1.6190    -1.2990     2.1320 c3         1 ZXD       0.095100
     12 OAE          2.1600    -2.4150     1.4210 oh         1 ZXD      -0.602800
     13 HAA         -0.3610     0.3760    -0.9500 hc         1 ZXD       0.035367
     14 HAAA        -0.3610     0.6350     0.8000 hc         1 ZXD       0.035367
     15 HAAB        -0.3610    -1.0100     0.1490 hc         1 ZXD       0.035367
     16 HAH          1.8920    -0.8840    -0.5110 hc         1 ZXD       0.064700
     17 HAB          1.8430     2.1240    -0.1110 hc         1 ZXD       0.035367
     18 HABA         3.1060     1.1600    -0.8890 hc         1 ZXD       0.035367
     19 HABB         1.5310     1.3510    -1.6720 hc         1 ZXD       0.035367
     20 HAL          1.6210     0.8430     1.9780 h1         1 ZXD       0.069700
     21 HNAG         3.8950    -0.6830     0.9600 hn         1 ZXD       0.369800
     22 HAF          3.6000     0.9900     3.3380 h1         1 ZXD       0.062700
     23 HAFA         5.1110     0.2530     2.7790 h1         1 ZXD       0.062700
     24 HAI          4.1120    -1.9890     3.0230 h1         1 ZXD       0.059700
     25 HOAC         4.9400    -1.6320     4.9530 ho         1 ZXD       0.407000
     26 HAJ          1.7100    -0.4790     4.1170 h1         1 ZXD       0.048700
     27 HOAD         1.1920    -2.3770     4.8970 ho         1 ZXD       0.404000
     28 HAK          0.5380    -1.3640     2.1480 h1         1 ZXD       0.043700
     29 HOAE         1.5280    -3.1150     1.4080 ho         1 ZXD       0.413000
@<TRIPOS>BOND
     1     1     2 1
     2     2     3 1
     3     2     4 1
     4     4     5 1
     5     4    11 1
     6     5     6 1
     7     6     7 1
     8     7     8 1
     9     7     9 1
    10     9    10 1
    11     9    11 1
    12    11    12 1
    13     1    13 1
    14     1    14 1
    15     1    15 1
    16     2    16 1
    17     3    17 1
    18     3    18 1
    19     3    19 1
    20     4    20 1
    21     5    21 1
    22     6    22 1
    23     6    23 1
    24     7    24 1
    25     8    25 1
    26     9    26 1
    27    10    27 1
    28    11    28 1
    29    12    29 1
@<TRIPOS>SUBSTRUCTURE
     1 ZXD         1 TEMP              0 ****  ****    0 ROOT
