@<TRIPOS>MOLECULE
molecule
   36    37     1     0     0
SMALL
bcc


@<TRIPOS>ATOM
      1 CAA          0.0000     0.0000     0.0000 c3         1 ZXG      -0.083600
      2 CAB          2.0410     0.0000     1.4430 c3         1 ZXG      -0.083600
      3 OAC          5.5440     3.6530    -2.3790 o          1 ZXG      -0.712200
      4 OAD          5.1780     5.7250    -3.7280 o          1 ZXG      -0.712200
      5 OAF          4.6020     3.5870    -4.5380 o          1 ZXG      -0.712200
      6 BrAG         0.3690    -4.6370    -2.3800 br         1 ZXG      -0.081100
      7 BrAH         5.7020    -2.7400    -1.9000 br         1 ZXG      -0.081100
      8 BrAI         4.2460     4.5900     0.2760 br         1 ZXG      -0.057100
      9 BrAJ         1.8090     2.8050    -4.5350 br         1 ZXG      -0.057100
     10 CAK          1.1370    -2.1940    -1.1370 ca         1 ZXG      -0.073500
     11 CAL          3.3870    -1.3950    -0.9330 ca         1 ZXG      -0.073500
     12 CAM          2.7700     2.1740    -0.0190 ca         1 ZXG      -0.089000
     13 CAN          1.7560     1.4130    -2.0530 ca         1 ZXG      -0.089000
     14 OAO          3.4040     4.6020    -2.6560 os         1 ZXG      -0.487800
     15 CAP          1.5950    -3.3210    -1.7960 ca         1 ZXG      -0.041900
     16 CAQ          3.8490    -2.5160    -1.5960 ca         1 ZXG      -0.041900
     17 CAR          3.2320     3.3030    -0.6690 ca         1 ZXG      -0.018900
     18 CAS          2.2070     2.5460    -2.7050 ca         1 ZXG      -0.018900
     19 CAT          2.9530    -3.4850    -2.0250 ca         1 ZXG       0.141100
     20 CAU          2.0320    -1.2300    -0.7110 ca         1 ZXG      -0.073300
     21 CAV          2.0320     1.2310    -0.7110 ca         1 ZXG      -0.116300
     22 CAW          2.9510     3.4910    -2.0150 ca         1 ZXG       0.232100
     23 CAX          1.5300     0.0000     0.0000 c3         1 ZXG       0.038600
     24 SAY          4.7800     4.4350    -3.2860 s6         1 ZXG       1.531300
     25 HAA         -0.3610    -0.8270     0.5990 hc         1 ZXG       0.039867
     26 HAAA        -0.3610    -0.1050    -1.0160 hc         1 ZXG       0.039867
     27 HAAB        -0.3610     0.9330     0.4170 hc         1 ZXG       0.039867
     28 HAB          1.6050     0.8340     1.9800 hc         1 ZXG       0.039867
     29 HABA         1.7580    -0.9280     1.9260 hc         1 ZXG       0.039867
     30 HABB         3.1200     0.0940     1.4440 hc         1 ZXG       0.039867
     31 HOAE         3.4290    -4.4260    -3.5990 ho         1 ZXG       0.430000
     32 HAK          0.0760    -2.0630    -0.9620 ha         1 ZXG       0.161000
     33 HAL          4.0850    -0.6380    -0.5970 ha         1 ZXG       0.161000
     34 HAM          2.9840     2.0290     1.0330 ha         1 ZXG       0.139000
     35 HAN          1.1790     0.6720    -2.5920 ha         1 ZXG       0.139000
     36 OAE          3.4050    -4.5920    -2.6720 oh         1 ZXG      -0.509100
@<TRIPOS>BOND
     1     1    23 1
     2     1    25 1
     3     1    26 1
     4     1    27 1
     5     2    23 1
     6     2    28 1
     7     2    29 1
     8     2    30 1
     9     3    24 1
    10     4    24 1
    11    36    19 1
    12    36    31 1
    13    24     5 1
    14     6    15 1
    15     7    16 1
    16    17     8 1
    17    18     9 1
    18    15    10 ar
    19    10    20 ar
    20    10    32 1
    21    16    11 ar
    22    11    20 ar
    23    11    33 1
    24    21    12 ar
    25    12    17 ar
    26    12    34 1
    27    21    13 ar
    28    13    18 ar
    29    13    35 1
    30    22    14 1
    31    14    24 1
    32    19    15 ar
    33    19    16 ar
    34    17    22 ar
    35    18    22 ar
    36    20    23 1
    37    23    21 1
@<TRIPOS>SUBSTRUCTURE
     1 ZXG         1 TEMP              0 ****  ****    0 ROOT
