@<TRIPOS>MOLECULE
ZXG
   36    35     1     0     0
SMALL
bcc


@<TRIPOS>ATOM
      1 CAA        -0.5510    0.2450   -0.2250 c3        1 ZXG     -0.203000
      2 CAB         0.9930   -0.1760    1.6880 c3        1 ZXG     -0.203000
      3 OAC         5.0480    3.9310   -4.3810 o         1 ZXG     -1.042667
      4 OAD         6.0120    5.3370   -2.7540 o         1 ZXG     -1.042667
      5 OAF         4.2580    6.1280   -4.0900 o         1 ZXG     -1.042667
      6 BRAG        1.5520   -3.6370   -3.4080 br        1 ZXG      0.017000
      7 BRAH        6.4190   -3.5490   -1.6190 br        1 ZXG     -0.133000
      8 BRAI        5.3250    2.2250   -0.6610 br        1 ZXG      0.053000
      9 BRAJ        0.9600    4.3050   -3.8880 br        1 ZXG      0.098000
     10 CAK         1.7160   -2.2720   -0.9510 c1        1 ZXG     -0.215000
     11 CAL         4.2920   -1.6880   -2.3450 c1        1 ZXG     -0.115000
     12 CAM         2.7820    1.1450   -1.0820 c2        1 ZXG     -0.041000
     13 CAN         0.8720    2.2590   -2.1230 c1        1 ZXG      0.138000
     14 OAO         3.7340    4.4700   -2.3660 os        1 ZXG     -0.661000
     15 CAP         2.1050   -3.5080   -1.5370 c3        1 ZXG      0.016000
     16 CAQ         4.5930   -2.9160   -1.8290 c2        1 ZXG     -0.286000
     17 CAR         3.6040    2.3100   -1.3590 c2        1 ZXG     -0.414000
     18 CAS         1.7100    3.1900   -2.5770 c2        1 ZXG     -0.444000
     19 CAT         3.5860   -3.7790   -1.4360 c2        1 ZXG      0.253000
     20 CAU         1.3600   -1.2390   -0.4610 c1        1 ZXG     -0.035000
     21 CAV         1.7410    1.1750   -0.2260 c2        1 ZXG     -0.158000
     22 CAW         3.1070    3.3440   -2.1150 c2        1 ZXG      0.360000
     23 CAX         0.9070   -0.0140    0.1650 c3        1 ZXG      0.085000
     24 SAY         4.9430    5.0460   -3.5750 s6        1 ZXG      2.902000
     25 HAA        -1.1830   -0.6380    0.0270 hc        1 ZXG      0.082833
     26 HAAA       -0.9300    1.1360    0.3310 hc        1 ZXG      0.082833
     27 HAAB       -0.6190    0.4580   -1.3210 hc        1 ZXG      0.082833
     28 HAB         0.6280    0.7540    2.1840 hc        1 ZXG      0.082833
     29 HABA        0.3610   -1.0340    2.0190 hc        1 ZXG      0.082833
     30 HABB        2.0480   -0.3590    2.0000 hc        1 ZXG      0.082833
     31 HOAE        4.7600   -5.1810   -0.8560 ho        1 ZXG      0.262000
     32 HAK         1.5510   -4.3550   -1.0360 h1        1 ZXG      0.146000
     33 HAL         4.9900   -0.9210   -2.6700 ha        1 ZXG      0.146000
     34 HAM         3.0700    0.2100   -1.6090 ha        1 ZXG      0.161000
     35 HAN         1.4750    2.0950    0.3230 ha        1 ZXG      0.141000
     36 OAE         3.7950   -5.0050   -0.9050 oh        1 ZXG     -0.239000
@<TRIPOS>BOND
     1    1   23 1   
     2    1   25 1   
     3    1   26 1   
     4    1   27 1   
     5    2   23 1   
     6    2   28 1   
     7    2   29 1   
     8    2   30 1   
     9    3   24 1   
    10    4   24 1   
    11    5   24 1   
    12    6   15 1   
    13    7   16 1   
    14    8   17 1   
    15    9   18 1   
    16   10   15 1   
    17   10   20 1   
    18   11   16 1   
    19   11   33 1   
    20   12   17 1   
    21   12   21 1   
    22   12   34 1   
    23   13   18 1   
    24   14   22 1   
    25   14   24 1   
    26   15   19 1   
    27   15   32 1   
    28   16   19 1   
    29   17   22 1   
    30   18   22 1   
    31   19   36 1   
    32   20   23 1   
    33   21   23 1   
    34   21   35 1   
    35   31   36 1   
@<TRIPOS>SUBSTRUCTURE
     1 ZXG         1 TEMP              0 ****  ****    0 ROOT
