@<TRIPOS>MOLECULE
molecule
   18    18     1     0     0
SMALL
bcc


@<TRIPOS>ATOM
      1 C1           0.0000     0.0000     0.0000 c3         1 ZXI       0.159100
      2 C2           1.5070     0.0000     0.0000 ca         1 ZXI      -0.188300
      3 C3           2.1980     0.0000     1.1980 ca         1 ZXI      -0.102500
      4 C4           3.5800    -0.0010     1.1980 ca         1 ZXI      -0.084000
      5 C5           4.2730    -0.0020     0.0010 ca         1 ZXI       0.084900
      6 C6           3.5810    -0.0020    -1.1970 ca         1 ZXI      -0.084000
      7 C7           2.1990    -0.0080    -1.1970 ca         1 ZXI      -0.102500
      8 I14          6.3670    -0.0020     0.0010 i          1 ZXI      -0.084900
      9 N15         -0.4900    -1.3840     0.0070 nz         1 ZXI      -0.810600
     10 H1          -0.3610     0.5150     0.8820 hx         1 ZXI       0.113700
     11 H2          -0.3610     0.5060    -0.8870 hx         1 ZXI       0.113700
     12 H3           1.6560     0.0010     2.1360 ha         1 ZXI       0.141000
     13 H4           4.1220    -0.0010     2.1370 ha         1 ZXI       0.169000
     14 H5           4.1230    -0.0060    -2.1350 ha         1 ZXI       0.169000
     15 H6           1.6580    -0.0080    -2.1360 ha         1 ZXI       0.141000
     16 H7          -0.1360    -1.8680    -0.7950 hn         1 ZXI       0.455800
     17 H8          -0.1770    -1.8450     0.8390 hn         1 ZXI       0.455800
     18 H153        -1.4900    -1.3850    -0.0170 hn         1 ZXI       0.455800
@<TRIPOS>BOND
     1     4     3 ar
     2     4     5 ar
     3     3     2 ar
     4     8     5 1
     5     9     1 1
     6     5     6 ar
     7     2     1 1
     8     2     7 ar
     9     6     7 ar
    10     1    10 1
    11     1    11 1
    12     3    12 1
    13     4    13 1
    14     6    14 1
    15     7    15 1
    16     9    16 1
    17     9    17 1
    18    18     9 1
@<TRIPOS>SUBSTRUCTURE
     1 ZXI         1 TEMP              0 ****  ****    0 ROOT
