@<TRIPOS>MOLECULE
molecule
   24    25     1     0     0
SMALL
bcc


@<TRIPOS>ATOM
      1 C1           0.0000     0.0000     0.0000 ca         1 ZXZ      -0.073000
      2 C2           1.3990     0.0000     0.0000 ca         1 ZXZ      -0.127800
      3 C3           2.1000     0.0000     1.2200 ca         1 ZXZ       0.094600
      4 C4           1.3890     0.0000     2.4160 ca         1 ZXZ      -0.181000
      5 C5           0.0110     0.0000     2.3920 ca         1 ZXZ      -0.080000
      6 C6          -0.6770    -0.0010     1.1860 ca         1 ZXZ      -0.165000
      7 C7           2.1560    -0.0000    -1.2540 cc         1 ZXZ       0.007600
      8 C8           3.5110    -0.0000    -1.1910 cd         1 ZXZ      -0.243200
      9 C9           4.1660    -0.0000     0.0600 c          1 ZXZ       0.698700
     10 N10          3.4780    -0.0000     1.2150 n          1 ZXZ      -0.337000
     11 C11          1.4460    -0.0000    -2.5830 c3         1 ZXZ      -0.057900
     12 C12          4.2050     0.0000     2.4870 c3         1 ZXZ       0.078300
     13 O13          5.3840     0.0000     0.0920 o          1 ZXZ      -0.650500
     14 H1          -0.5440    -0.0010    -0.9370 ha         1 ZXZ       0.137000
     15 H4           1.9160     0.0010     3.3620 ha         1 ZXZ       0.140000
     16 H5          -0.5420    -0.0010     3.3240 ha         1 ZXZ       0.134000
     17 H6          -1.7600    -0.0010     1.1850 ha         1 ZXZ       0.133000
     18 H8           4.0930    -0.0000    -2.1050 ha         1 ZXZ       0.164000
     19 H11          0.8250     0.8840    -2.6600 hc         1 ZXZ       0.052033
     20 H11A         0.8260    -0.8850    -2.6610 hc         1 ZXZ       0.052033
     21 H11B         2.1770     0.0000    -3.3830 hc         1 ZXZ       0.052033
     22 H12          5.2710    -0.0000     2.2930 h1         1 ZXZ       0.057033
     23 H12A         3.9410    -0.8840     3.0540 h1         1 ZXZ       0.057033
     24 H12B         3.9410     0.8850     3.0540 h1         1 ZXZ       0.057033
@<TRIPOS>BOND
     1     1     6 ar
     2     1     2 ar
     3     1    14 1
     4     7     2 1
     5     2     3 ar
     6     3     4 ar
     7     3    10 1
     8     5     4 ar
     9     4    15 1
    10     6     5 ar
    11     5    16 1
    12     6    17 1
    13    11     7 1
    14     7     8 2
    15     8     9 1
    16     8    18 1
    17     9    10 1
    18     9    13 2
    19    10    12 1
    20    11    19 1
    21    11    20 1
    22    11    21 1
    23    12    22 1
    24    12    23 1
    25    12    24 1
@<TRIPOS>SUBSTRUCTURE
     1 ZXZ         1 TEMP              0 ****  ****    0 ROOT
