@<TRIPOS>MOLECULE
ZY0
   79    83     1     0     0
SMALL
bcc


@<TRIPOS>ATOM
      1 C1           0.0000     0.0000     0.0000 ca         1 ZY0      -0.149300
      2 C2           1.4020     0.0000     0.0000 ca         1 ZY0      -0.065000
      3 C3           2.0850     0.0000     1.2060 ca         1 ZY0      -0.139600
      4 C4           1.3820    -0.0010     2.4230 ca         1 ZY0      -0.025000
      5 C5           0.0190    -0.0020     2.4420 ca         1 ZY0      -0.113700
      6 C6          -0.7050    -0.0020     1.2290 ca         1 ZY0       0.398600
      7 C7           3.5630     0.0000     1.2110 c          1 ZY0       0.590700
      8 N8           4.2410     0.0000     0.0480 ns         1 ZY0      -0.190900
      9 O9           4.1660     0.0000     2.2670 o          1 ZY0      -0.632100
     10 C10          5.7060     0.0010     0.0530 c3         1 ZY0       0.010700
     11 C11          6.2160    -1.4360     0.1800 c3         1 ZY0       0.011900
     12 C12          6.2220     0.6110    -1.2510 c3         1 ZY0       0.180100
     13 O13          5.8480    -0.2260    -2.3480 oh         1 ZY0      -0.575800
     14 C14          5.8120    -1.9960     1.5200 ca         1 ZY0      -0.077300
     15 C15          7.7460     0.7260    -1.1940 c3         1 ZY0       0.114800
     16 N16          8.2300     1.4200    -2.3950 n7         1 ZY0      -0.576200
     17 C17          9.6940     1.5490    -2.3740 c3         1 ZY0       0.205100
     18 C18          4.6060    -2.6570     1.6580 ca         1 ZY0      -0.093000
     19 C19          4.2350    -3.1700     2.8870 ca         1 ZY0      -0.091500
     20 C20          5.0710    -3.0230     3.9780 ca         1 ZY0      -0.100000
     21 C21          6.2770    -2.3620     3.8400 ca         1 ZY0      -0.091500
     22 C22          6.6510    -1.8530     2.6100 ca         1 ZY0      -0.093000
     23 C9          -0.7300     0.0060    -1.2060 ca         1 ZY0      -0.035300
     24 C24         -2.1310    -0.7540     5.4030 c3         1 ZY0      -0.031400
     25 C25         -1.7560     0.7320     5.6020 c3         1 ZY0      -0.111400
     26 C26         -1.0330     1.1060     4.3260 c          1 ZY0       0.632500
     27 N27         -0.6630    -0.0030     3.6630 n          1 ZY0      -0.031000
     28 C28         -1.0640    -1.2160     4.3850 c3         1 ZY0       0.047000
     29 C30         -2.7240    -0.0010     0.1090 ca         1 ZY0       0.429200
     30 N1          -2.0400    -0.0020     1.2290 nb         1 ZY0      -0.575000
     31 C33         -0.0250     0.0120    -2.5370 c3         1 ZY0       0.021900
     32 C34         10.8840     2.1990    -5.8970 ca         1 ZY0      -0.212300
     33 C35         10.9940     3.5770    -5.9010 ca         1 ZY0      -0.045000
     34 C36         10.6840     4.2980    -4.7640 ca         1 ZY0      -0.106000
     35 C37         10.2630     3.6420    -3.6230 ca         1 ZY0      -0.064000
     36 C38         10.1530     2.2640    -3.6180 ca         1 ZY0      -0.104300
     37 C39         10.4640     1.5420    -4.7560 ca         1 ZY0      -0.015000
     38 F3          11.6090     2.2900    -8.1550 f          1 ZY0      -0.207633
     39 F1          12.2610     0.5230    -6.8620 f          1 ZY0      -0.207633
     40 F2          10.0890     0.6940    -7.5520 f          1 ZY0      -0.207633
     41 C13         -2.0930     0.0040    -1.1340 ca         1 ZY0      -0.224300
     42 H2           1.9470     0.0010    -0.9360 ha         1 ZY0       0.114000
     43 H4           1.9300    -0.0010     3.3570 ha         1 ZY0       0.138000
     44 H8           3.7450     0.0290    -0.8210 hn         1 ZY0       0.179500
     45 H10          6.0640     0.5870     0.8920 h1         1 ZY0       0.064700
     46 H111         5.7880    -2.0420    -0.6090 hc         1 ZY0       0.033700
     47 H112         7.2960    -1.4450     0.0970 hc         1 ZY0       0.033700
     48 H12          5.7910     1.5960    -1.3850 h1         1 ZY0       0.002700
     49 H13          5.4590     0.3000    -3.0270 ho         1 ZY0       0.393000
     50 H151         8.1810    -0.2650    -1.1500 h1         1 ZY0       0.024200
     51 H152         8.0330     1.2870    -0.3130 h1         1 ZY0       0.024200
     52 H18          3.9510    -2.7730     0.8030 ha         1 ZY0       0.098500
     53 H22          7.5960    -1.3360     2.5030 ha         1 ZY0       0.098500
     54 H16          7.8150     2.3300    -2.4450 hn         1 ZY0       0.249800
     55 H171         9.9940     2.1160    -1.5000 h1         1 ZY0       0.014200
     56 H172        10.1430     0.5640    -2.3370 h1         1 ZY0       0.014200
     57 H19          3.2890    -3.6880     2.9950 ha         1 ZY0       0.097000
     58 H20          4.7790    -3.4230     4.9420 ha         1 ZY0       0.098000
     59 H21          6.9330    -2.2490     4.6950 ha         1 ZY0       0.097000
     60 H331        -0.6740     0.4480    -3.2880 hc         1 ZY0       0.021200
     61 H332         0.8840     0.5980    -2.4630 hc         1 ZY0       0.021200
     62 HA          -2.6850     0.0050    -2.0410 ha         1 ZY0       0.117000
     63 H251        -2.6480     1.3340     5.7210 hc         1 ZY0       0.042200
     64 H252        -1.0980     0.8440     6.4560 hc         1 ZY0       0.042200
     65 H30         -3.8060    -0.0020     0.1510 h4         1 ZY0      -0.020900
     66 H321         0.6510    -1.9710    -2.0620 hc         1 ZY0       0.006700
     67 H322         1.1210    -1.4080    -3.6710 hc         1 ZY0       0.006700
     68 H323        -0.5490    -1.9020    -3.3600 hc         1 ZY0       0.006700
     69 H35         11.3230     4.0920    -6.7960 ha         1 ZY0       0.121000
     70 H39         10.3780     0.4620    -4.7530 ha         1 ZY0       0.122000
     71 H36         10.7700     5.3780    -4.7670 ha         1 ZY0       0.111000
     72 H37         10.0200     4.2070    -2.7310 ha         1 ZY0       0.105000
     73 H241        -2.0400    -1.3020     6.3330 hc         1 ZY0       0.027200
     74 H242        -3.1270    -0.8470     4.9860 hc         1 ZY0       0.027200
     75 H281        -0.2130    -1.6420     4.9030 h1         1 ZY0       0.018700
     76 H282        -1.4910    -1.9360     3.6980 h1         1 ZY0       0.018700
     77 O1          -0.8200     2.2410     3.9560 o          1 ZY0      -0.664500
     78 C8          11.2170     1.4120    -7.1390 c3         1 ZY0       0.641200
     79 C32          0.3250    -1.4220    -2.9370 c3         1 ZY0       0.004900
@<TRIPOS>BOND
     1     1     2 ar  
     2     1     6 ar  
     3     1    23 ar  
     4     2     3 ar  
     5     2    42 1   
     6     3     4 ar  
     7     3     7 1   
     8     4     5 ar  
     9     4    43 1   
    10     5     6 ar  
    11     5    27 1   
    12     6    30 ar  
    13     7     8 1   
    14     7     9 2   
    15     8    10 1   
    16     8    44 1   
    17    10    11 1   
    18    10    12 1   
    19    10    45 1   
    20    11    14 1   
    21    11    46 1   
    22    11    47 1   
    23    12    13 1   
    24    12    15 1   
    25    12    48 1   
    26    13    49 1   
    27    14    18 ar  
    28    14    22 ar  
    29    15    16 1   
    30    15    50 1   
    31    15    51 1   
    32    16    17 1   
    33    16    54 1   
    34    17    36 1   
    35    17    55 1   
    36    17    56 1   
    37    18    19 ar  
    38    18    52 1   
    39    19    20 ar  
    40    19    57 1   
    41    20    21 ar  
    42    20    58 1   
    43    21    22 ar  
    44    21    59 1   
    45    22    53 1   
    46    23    31 1   
    47    23    41 ar  
    48    24    25 1   
    49    24    28 1   
    50    24    73 1   
    51    24    74 1   
    52    25    26 1   
    53    25    63 1   
    54    25    64 1   
    55    26    27 1   
    56    26    77 2   
    57    27    28 1   
    58    28    75 1   
    59    28    76 1   
    60    29    30 ar  
    61    29    41 ar  
    62    29    65 1   
    63    31    60 1   
    64    31    61 1   
    65    31    79 1   
    66    32    33 ar  
    67    32    37 ar  
    68    32    78 1   
    69    33    34 ar  
    70    33    69 1   
    71    34    35 ar  
    72    34    71 1   
    73    35    36 ar  
    74    35    72 1   
    75    36    37 ar  
    76    37    70 1   
    77    38    78 1   
    78    39    78 1   
    79    40    78 1   
    80    41    62 1   
    81    66    79 1   
    82    67    79 1   
    83    68    79 1   
@<TRIPOS>SUBSTRUCTURE
     1 ZY0         1 TEMP              0 ****  ****    0 ROOT
