@<TRIPOS>MOLECULE
molecule
   79    83     1     0     0
SMALL
bcc


@<TRIPOS>ATOM
      1 C1           0.0000     0.0000     0.0000 ca         1 ZY0      -0.159300
      2 C2           1.4020     0.0000     0.0000 ca         1 ZY0      -0.085000
      3 C3           2.0850     0.0000     1.2060 ca         1 ZY0      -0.133600
      4 C4           1.3820    -0.0010     2.4230 ca         1 ZY0      -0.064000
      5 C5           0.0190    -0.0020     2.4420 ca         1 ZY0       0.019300
      6 C6          -0.7050    -0.0020     1.2290 ca         1 ZY0       0.436600
      7 C7           3.5630     0.0000     1.2110 c          1 ZY0       0.670700
      8 N8           4.2410     0.0000     0.0480 ns         1 ZY0      -0.578900
      9 O9           4.1660     0.0000     2.2670 o          1 ZY0      -0.590100
     10 C10          5.7060     0.0010     0.0530 c3         1 ZY0       0.118700
     11 C11          6.2160    -1.4360     0.1800 c3         1 ZY0      -0.045100
     12 C12          6.2220     0.6110    -1.2510 c3         1 ZY0       0.134100
     13 O13          5.8480    -0.2260    -2.3480 oh         1 ZY0      -0.594800
     14 C14          5.8120    -1.9960     1.5200 ca         1 ZY0      -0.070300
     15 C15          7.7460     0.7260    -1.1940 c3         1 ZY0       0.138800
     16 N16          8.2300     1.4200    -2.3950 n7         1 ZY0      -0.811200
     17 C17          9.6940     1.5490    -2.3740 c3         1 ZY0       0.206100
     18 C18          4.6060    -2.6570     1.6580 ca         1 ZY0      -0.117000
     19 C19          4.2350    -3.1700     2.8870 ca         1 ZY0      -0.120000
     20 C20          5.0710    -3.0230     3.9780 ca         1 ZY0      -0.127000
     21 C21          6.2770    -2.3620     3.8400 ca         1 ZY0      -0.120000
     22 C22          6.6510    -1.8530     2.6100 ca         1 ZY0      -0.117000
     23 C9          -0.7300     0.0060    -1.2060 ca         1 ZY0      -0.024300
     24 C24         -2.1310    -0.7540     5.4030 c3         1 ZY0      -0.097400
     25 C25         -1.7560     0.7320     5.6020 c3         1 ZY0      -0.166400
     26 C26         -1.0330     1.1060     4.3260 c          1 ZY0       0.714500
     27 N27         -0.6630    -0.0030     3.6630 n          1 ZY0      -0.401000
     28 C28         -1.0640    -1.2160     4.3850 c3         1 ZY0       0.106000
     29 C30         -2.7240    -0.0010     0.1090 ca         1 ZY0       0.445200
     30 N1          -2.0400    -0.0020     1.2290 nb         1 ZY0      -0.678000
     31 C33         -0.0250     0.0120    -2.5370 c3         1 ZY0      -0.044100
     32 C34         10.8840     2.1990    -5.8970 ca         1 ZY0      -0.181300
     33 C35         10.9940     3.5770    -5.9010 ca         1 ZY0      -0.081000
     34 C36         10.6840     4.2980    -4.7640 ca         1 ZY0      -0.133000
     35 C37         10.2630     3.6420    -3.6230 ca         1 ZY0      -0.099000
     36 C38         10.1530     2.2640    -3.6180 ca         1 ZY0      -0.092300
     37 C39         10.4640     1.5420    -4.7560 ca         1 ZY0      -0.056000
     38 F3          11.6090     2.2900    -8.1550 f          1 ZY0      -0.223300
     39 F1          12.2610     0.5230    -6.8620 f          1 ZY0      -0.223300
     40 F2          10.0890     0.6940    -7.5520 f          1 ZY0      -0.223300
     41 C13         -2.0930     0.0040    -1.1340 ca         1 ZY0      -0.258300
     42 H2           1.9470     0.0010    -0.9360 ha         1 ZY0       0.133000
     43 H4           1.9300    -0.0010     3.3570 ha         1 ZY0       0.171000
     44 H8           3.7450     0.0290    -0.8210 hn         1 ZY0       0.315500
     45 H10          6.0640     0.5870     0.8920 h1         1 ZY0       0.086700
     46 H111         5.7880    -2.0420    -0.6090 hc         1 ZY0       0.060700
     47 H112         7.2960    -1.4450     0.0970 hc         1 ZY0       0.060700
     48 H12          5.7910     1.5960    -1.3850 h1         1 ZY0       0.036700
     49 H13          5.4590     0.3000    -3.0270 ho         1 ZY0       0.406000
     50 H151         8.1810    -0.2650    -1.1500 h1         1 ZY0       0.048200
     51 H152         8.0330     1.2870    -0.3130 h1         1 ZY0       0.048200
     52 H18          3.9510    -2.7730     0.8030 ha         1 ZY0       0.122500
     53 H22          7.5960    -1.3360     2.5030 ha         1 ZY0       0.122500
     54 H16          7.8150     2.3300    -2.4450 hn         1 ZY0       0.350800
     55 H171         9.9940     2.1160    -1.5000 h1         1 ZY0       0.043700
     56 H172        10.1430     0.5640    -2.3370 h1         1 ZY0       0.043700
     57 H19          3.2890    -3.6880     2.9950 ha         1 ZY0       0.124000
     58 H20          4.7790    -3.4230     4.9420 ha         1 ZY0       0.124000
     59 H21          6.9330    -2.2490     4.6950 ha         1 ZY0       0.124000
     60 H331        -0.6740     0.4480    -3.2880 hc         1 ZY0       0.052700
     61 H332         0.8840     0.5980    -2.4630 hc         1 ZY0       0.052700
     62 HA          -2.6850     0.0050    -2.0410 ha         1 ZY0       0.140000
     63 H251        -2.6480     1.3340     5.7210 hc         1 ZY0       0.076700
     64 H252        -1.0980     0.8440     6.4560 hc         1 ZY0       0.076700
     65 H30         -3.8060    -0.0020     0.1510 h4         1 ZY0       0.025100
     66 H321         0.6510    -1.9710    -2.0620 hc         1 ZY0       0.041033
     67 H322         1.1210    -1.4080    -3.6710 hc         1 ZY0       0.041033
     68 H323        -0.5490    -1.9020    -3.3600 hc         1 ZY0       0.041033
     69 H35         11.3230     4.0920    -6.7960 ha         1 ZY0       0.150000
     70 H39         10.3780     0.4620    -4.7530 ha         1 ZY0       0.152000
     71 H36         10.7700     5.3780    -4.7670 ha         1 ZY0       0.140000
     72 H37         10.0200     4.2070    -2.7310 ha         1 ZY0       0.133000
     73 H241        -2.0400    -1.3020     6.3330 hc         1 ZY0       0.059700
     74 H242        -3.1270    -0.8470     4.9860 hc         1 ZY0       0.059700
     75 H281        -0.2130    -1.6420     4.9030 h1         1 ZY0       0.049700
     76 H282        -1.4910    -1.9360     3.6980 h1         1 ZY0       0.049700
     77 O1          -0.8200     2.2410     3.9560 o          1 ZY0      -0.618500
     78 C8          11.2170     1.4120    -7.1390 c3         1 ZY0       0.674200
     79 C32          0.3250    -1.4220    -2.9370 c3         1 ZY0      -0.091100
@<TRIPOS>BOND
     1     1     2 ar
     2     1     6 ar
     3     1    23 ar
     4     2     3 ar
     5     3     4 ar
     6     3     7 1
     7     4     5 ar
     8     5     6 ar
     9     5    27 1
    10     6    30 ar
    11     7     8 1
    12     7     9 2
    13     8    10 1
    14    10    11 1
    15    10    12 1
    16    11    14 1
    17    12    13 1
    18    12    15 1
    19    14    18 ar
    20    14    22 ar
    21    15    16 1
    22    16    17 1
    23    17    36 1
    24    18    19 ar
    25    19    20 ar
    26    20    21 ar
    27    21    22 ar
    28    23    31 1
    29    23    41 ar
    30    24    25 1
    31    24    28 1
    32    25    26 1
    33    26    27 1
    34    26    77 2
    35    27    28 1
    36    29    30 ar
    37    29    41 ar
    38    79    31 1
    39    32    33 ar
    40    32    37 ar
    41    32    78 1
    42    33    34 ar
    43    34    35 ar
    44    35    36 ar
    45    36    37 ar
    46    78    38 1
    47    78    39 1
    48    78    40 1
    49     2    42 1
    50     4    43 1
    51     8    44 1
    52    10    45 1
    53    11    46 1
    54    11    47 1
    55    12    48 1
    56    13    49 1
    57    15    50 1
    58    15    51 1
    59    18    52 1
    60    22    53 1
    61    16    54 1
    62    17    55 1
    63    17    56 1
    64    19    57 1
    65    20    58 1
    66    21    59 1
    67    31    60 1
    68    31    61 1
    69    41    62 1
    70    24    73 1
    71    24    74 1
    72    25    63 1
    73    25    64 1
    74    28    75 1
    75    28    76 1
    76    29    65 1
    77    79    66 1
    78    79    67 1
    79    79    68 1
    80    33    69 1
    81    37    70 1
    82    34    71 1
    83    35    72 1
@<TRIPOS>SUBSTRUCTURE
     1 ZY0         1 TEMP              0 ****  ****    0 ROOT
