@<TRIPOS>MOLECULE
molecule
   80    84     1     0     0
SMALL
bcc


@<TRIPOS>ATOM
      1 C69          0.0000     0.0000     0.0000 c3         1 ZY1      -0.089100
      2 C68          1.5300     0.0000     0.0000 c3         1 ZY1      -0.009200
      3 C58          2.0320     0.0000     1.4210 cc         1 ZY1      -0.128400
      4 C57          2.3880     1.0750     2.1440 cd         1 ZY1      -0.111100
      5 N56          2.8250     0.6800     3.3940 na         1 ZY1      -0.078400
      6 C62          3.4990     1.6060     4.3270 c3         1 ZY1       0.091300
      7 C61          4.7870     0.9560     4.8560 c3         1 ZY1      -0.263600
      8 S60          4.4290    -0.2280     6.1750 s6         1 ZY1       1.344900
      9 O80          4.2320     0.4580     7.4040 o          1 ZY1      -0.619800
     10 O79          5.3280    -1.3250     6.0980 o          1 ZY1      -0.619800
     11 N59          2.9700    -0.9060     5.8770 nh         1 ZY1      -0.690900
     12 C75          1.9320    -0.8870     6.9130 c3         1 ZY1       0.236100
     13 C10          2.7060    -1.5040     4.6390 ca         1 ZY1       0.093600
     14 C9           2.5540    -2.8580     4.4800 ca         1 ZY1      -0.031000
     15 C8           2.2650    -3.3910     3.2130 ca         1 ZY1      -0.170600
     16 C13          2.0910    -2.5490     2.1170 ca         1 ZY1      -0.046000
     17 C12          2.2210    -1.1720     2.2800 ca         1 ZY1      -0.108800
     18 C11          2.6030    -0.6490     3.5240 ca         1 ZY1      -0.029200
     19 C1           2.1450    -4.8530     3.0410 c          1 ZY1       0.676700
     20 O7           2.2960    -5.5920     3.9940 o          1 ZY1      -0.594100
     21 N2           1.8670    -5.3680     1.8260 ns         1 ZY1      -0.581900
     22 C3           1.7480    -6.8180     1.6560 c3         1 ZY1       0.119700
     23 C5           0.3240    -7.2570     2.0050 c3         1 ZY1      -0.045100
     24 C14          0.0660    -7.0050     3.4680 ca         1 ZY1      -0.069300
     25 C15         -0.4560    -5.7920     3.8790 ca         1 ZY1      -0.117000
     26 C16         -0.6930    -5.5600     5.2210 ca         1 ZY1      -0.120500
     27 C17         -0.4100    -6.5430     6.1520 ca         1 ZY1      -0.127000
     28 C18          0.1110    -7.7560     5.7410 ca         1 ZY1      -0.120500
     29 C19          0.3440    -7.9890     4.3990 ca         1 ZY1      -0.117000
     30 O47          5.9390   -11.5280    -4.7790 os         1 ZY1      -0.330900
     31 C4           2.0540    -7.1880     0.2030 c3         1 ZY1       0.134100
     32 C48          6.2680   -11.8370    -6.1340 c3         1 ZY1       0.129700
     33 O21          1.0570    -6.6230    -0.6520 oh         1 ZY1      -0.595800
     34 C6           2.0510    -8.7100     0.0530 c3         1 ZY1       0.138800
     35 N20          2.4620    -9.0690    -1.3110 n7         1 ZY1      -0.812200
     36 C37          2.4710   -10.5260    -1.4930 c3         1 ZY1       0.207100
     37 C39          2.8960   -10.8540    -2.9010 ca         1 ZY1      -0.053300
     38 C42          4.2330   -11.0410    -3.1920 ca         1 ZY1      -0.157000
     39 C43          4.6230   -11.3440    -4.4900 ca         1 ZY1       0.140100
     40 C44          3.6700   -11.4580    -5.4890 ca         1 ZY1      -0.218000
     41 C45          2.3330   -11.2700    -5.1930 ca         1 ZY1      -0.092000
     42 C46          1.9460   -10.9740    -3.8990 ca         1 ZY1      -0.143000
     43 H2           1.7860    -4.7630     1.0330 hn         1 ZY1       0.315500
     44 H3           2.4510    -7.3170     2.3120 h1         1 ZY1       0.086700
     45 H51C         0.2110    -8.3140     1.7950 hc         1 ZY1       0.060700
     46 H52C        -0.3840    -6.6930     1.4110 hc         1 ZY1       0.060700
     47 H61C         2.7440    -9.1440     0.7640 h1         1 ZY1       0.047200
     48 H62C         1.0540    -9.0900     0.2420 h1         1 ZY1       0.047200
     49 H21          1.4750    -6.1950    -1.3810 ho         1 ZY1       0.406000
     50 H20          3.3760    -8.7040    -1.4910 hn         1 ZY1       0.352800
     51 H9           2.6880    -3.5200     5.3270 ha         1 ZY1       0.176000
     52 H13          1.8680    -2.9630     1.1420 ha         1 ZY1       0.130000
     53 H15         -0.6770    -5.0230     3.1490 ha         1 ZY1       0.123000
     54 H19          0.7520    -8.9400     4.0770 ha         1 ZY1       0.123000
     55 H16         -1.1010    -4.6100     5.5430 ha         1 ZY1       0.123000
     56 H17         -0.5940    -6.3610     7.2040 ha         1 ZY1       0.123000
     57 H18          0.3310    -8.5260     6.4710 ha         1 ZY1       0.123000
     58 H371         1.4780   -10.9190    -1.3150 h1         1 ZY1       0.041700
     59 H372         3.1670   -10.9730    -0.7930 h1         1 ZY1       0.041700
     60 H42          4.9710   -11.0020    -2.4000 ha         1 ZY1       0.141000
     61 H46          0.8980   -10.8260    -3.6680 ha         1 ZY1       0.138000
     62 H44          3.9720   -11.6910    -6.5030 ha         1 ZY1       0.134000
     63 H45          1.5880   -11.3620    -5.9740 ha         1 ZY1       0.131000
     64 H481         5.7730   -12.7550    -6.4260 h1         1 ZY1       0.041033
     65 H482         7.3400   -11.9590    -6.2270 h1         1 ZY1       0.041033
     66 H483         5.9390   -11.0300    -6.7780 h1         1 ZY1       0.041033
     67 H57          2.3390     2.1000     1.7980 h4         1 ZY1       0.170000
     68 H621         2.8380     1.8230     5.1580 h1         1 ZY1       0.068700
     69 H622         3.7470     2.5230     3.8070 h1         1 ZY1       0.068700
     70 H681         1.8920     0.8730    -0.5300 hc         1 ZY1       0.046200
     71 H682         1.8920    -0.8960    -0.4900 hc         1 ZY1       0.046200
     72 H751         1.7690     0.1330     7.2410 h1         1 ZY1       0.049033
     73 H752         2.2500    -1.4910     7.7540 h1         1 ZY1       0.049033
     74 H753         1.0110    -1.2880     6.5080 h1         1 ZY1       0.049033
     75 H611         5.2830     0.4400     4.0430 h1         1 ZY1       0.118200
     76 H612         5.4400     1.7290     5.2440 h1         1 ZY1       0.118200
     77 H691        -0.3610     0.6060     0.8220 hc         1 ZY1       0.037033
     78 H692        -0.3610    -1.0150     0.1140 hc         1 ZY1       0.037033
     79 H693        -0.3610     0.4090    -0.9360 hc         1 ZY1       0.037033
     80 H4           3.0270    -6.8000    -0.0710 h1         1 ZY1       0.036700
@<TRIPOS>BOND
     1    19    21 1
     2    19    20 2
     3    19    15 1
     4    21    22 1
     5    22    31 1
     6    22    23 1
     7    31    34 1
     8    31    33 1
     9    23    24 1
    10    34    35 1
    11    15    14 ar
    12    15    16 ar
    13    14    13 ar
    14    13    18 ar
    15    13    11 1
    16    18    17 ar
    17    18     5 1
    18    17    16 ar
    19    17     3 1
    20    24    25 ar
    21    24    29 ar
    22    25    26 ar
    23    26    27 ar
    24    27    28 ar
    25    28    29 ar
    26    35    36 1
    27    36    37 1
    28    37    38 ar
    29    37    42 ar
    30    38    39 ar
    31    39    40 ar
    32    39    30 1
    33    40    41 ar
    34    41    42 ar
    35    30    32 1
    36     5     4 1
    37     5     6 1
    38     4     3 2
    39     3     2 1
    40    11     8 1
    41    11    12 1
    42     8     7 1
    43     8    10 2
    44     8     9 2
    45     7     6 1
    46     2     1 1
    47    21    43 1
    48    22    44 1
    49    23    45 1
    50    23    46 1
    51    34    47 1
    52    34    48 1
    53    33    49 1
    54    35    50 1
    55    14    51 1
    56    16    52 1
    57    25    53 1
    58    29    54 1
    59    26    55 1
    60    27    56 1
    61    28    57 1
    62    36    58 1
    63    36    59 1
    64    38    60 1
    65    42    61 1
    66    40    62 1
    67    41    63 1
    68    32    64 1
    69    32    65 1
    70    32    66 1
    71     4    67 1
    72     6    68 1
    73     6    69 1
    74     2    70 1
    75     2    71 1
    76    12    72 1
    77    12    73 1
    78    12    74 1
    79     7    75 1
    80     7    76 1
    81     1    77 1
    82     1    78 1
    83     1    79 1
    84    31    80 1
@<TRIPOS>SUBSTRUCTURE
     1 ZY1         1 TEMP              0 ****  ****    0 ROOT
