@<TRIPOS>MOLECULE
molecule
   84    88     1     0     0
SMALL
bcc


@<TRIPOS>ATOM
      1 C1           0.0000     0.0000     0.0000 c          1 ZY2       0.675700
      2 N2           1.3480     0.0000     0.0000 ns         1 ZY2      -0.578900
      3 C3           2.0800     0.0000     1.2690 c3         1 ZY2       0.118700
      4 C4           3.4680     0.6090     1.0560 c3         1 ZY2       0.134100
      5 C5           2.2260    -1.4360     1.7740 c3         1 ZY2      -0.045100
      6 C6           4.1860     0.7250     2.4020 c3         1 ZY2       0.138800
      7 O7          -0.6080     0.0010     1.0530 o          1 ZY2      -0.597100
      8 C8          -0.7380     0.0060    -1.2770 ca         1 ZY2      -0.125600
      9 C9          -0.0530     0.0100    -2.4920 ca         1 ZY2      -0.134000
     10 C10         -0.7500     0.0360    -3.6870 ca         1 ZY2       0.156600
     11 C11         -2.1540     0.0270    -3.7150 ca         1 ZY2       0.067600
     12 C12         -2.8300    -0.0020    -2.4920 ca         1 ZY2       0.092600
     13 C13         -2.1300     0.0000    -1.2920 ca         1 ZY2      -0.110000
     14 C14          0.8640    -1.9950     2.1000 ca         1 ZY2      -0.070300
     15 C15          0.1380    -2.6560     1.1280 ca         1 ZY2      -0.116000
     16 C16         -1.1110    -3.1680     1.4270 ca         1 ZY2      -0.121500
     17 C17         -1.6330    -3.0190     2.6980 ca         1 ZY2      -0.130000
     18 C18         -0.9050    -2.3570     3.6710 ca         1 ZY2      -0.121500
     19 C19          0.3450    -1.8500     3.3730 ca         1 ZY2      -0.116000
     20 N20          5.4680     1.4180     2.2170 n7         1 ZY2      -0.811200
     21 O21          4.2270    -0.2290     0.1820 oh         1 ZY2      -0.593800
     22 C37          6.1860     1.5480     3.4900 c3         1 ZY2       0.207100
     23 C39          7.4930     2.2610     3.2600 ca         1 ZY2      -0.053300
     24 C42          7.5530     3.6390     3.3520 ca         1 ZY2      -0.158000
     25 C43          8.7560     4.2960     3.1400 ca         1 ZY2       0.140100
     26 C44          9.8970     3.5670     2.8360 ca         1 ZY2      -0.218000
     27 C45          9.8320     2.1900     2.7450 ca         1 ZY2      -0.091000
     28 C46          8.6320     1.5380     2.9620 ca         1 ZY2      -0.142000
     29 O47          8.8160     5.6500     3.2290 os         1 ZY2      -0.330900
     30 C48         10.0890     6.2590     2.9980 c3         1 ZY2       0.129700
     31 N56         -2.8650    -0.0170    -4.9250 nh         1 ZY2      -0.602000
     32 C57         -4.8530    -0.5880    -3.6050 c3         1 ZY2       0.159800
     33 N1          -4.2210    -0.0910    -2.3830 nh         1 ZY2      -0.602000
     34 N59         -0.0130     0.1110    -4.8680 nh         1 ZY2      -0.680900
     35 S60         -0.3750    -0.8730    -6.1520 s6         1 ZY2       1.333900
     36 C61         -1.6140     0.1360    -7.0210 c3         1 ZY2      -0.221600
     37 C62         -2.3510     0.9540    -5.9240 c3         1 ZY2       0.176800
     38 C68         -4.6070    -0.9040    -1.2220 c3         1 ZY2       0.158800
     39 C69         -6.1310    -0.8990    -1.0800 c3         1 ZY2      -0.099100
     40 C75          1.0910     1.0680    -4.9750 c3         1 ZY2       0.227100
     41 O79         -0.9710    -2.0250    -5.5730 o          1 ZY2      -0.611300
     42 O80          0.8310    -0.9560    -6.9000 o          1 ZY2      -0.611300
     43 C2          -4.3050     0.2160    -4.7800 c3         1 ZY2       0.166800
     44 H2           1.8480     0.0430    -0.8660 hn         1 ZY2       0.317500
     45 H3           1.5360     0.5860     1.9990 h1         1 ZY2       0.084700
     46 H4           3.3660     1.5930     0.6160 h1         1 ZY2       0.034700
     47 H51C         2.8420    -1.4450     2.6650 hc         1 ZY2       0.061700
     48 H52C         2.6910    -2.0430     1.0070 hc         1 ZY2       0.061700
     49 H61C         3.5690     1.2860     3.0940 h1         1 ZY2       0.046700
     50 H62C         4.3670    -0.2660     2.8010 h1         1 ZY2       0.046700
     51 H21          4.6270     0.2980    -0.4900 ho         1 ZY2       0.406000
     52 H20          5.3020     2.3270     1.8320 hn         1 ZY2       0.351800
     53 H9           1.0300    -0.0070    -2.5000 ha         1 ZY2       0.134000
     54 H13         -2.6740     0.0010    -0.3550 ha         1 ZY2       0.170000
     55 H15          0.5470    -2.7730     0.1320 ha         1 ZY2       0.124500
     56 H19          0.9150    -1.3320     4.1350 ha         1 ZY2       0.124500
     57 H16         -1.6800    -3.6860     0.6650 ha         1 ZY2       0.123500
     58 H17         -2.6130    -3.4180     2.9320 ha         1 ZY2       0.122000
     59 H18         -1.3130    -2.2420     4.6680 ha         1 ZY2       0.123500
     60 H371         5.5830     2.1150     4.1890 h1         1 ZY2       0.041200
     61 H372         6.3790     0.5630     3.8970 h1         1 ZY2       0.041200
     62 H42          6.6600     4.2050     3.5890 ha         1 ZY2       0.140000
     63 H46          8.5830     0.4580     2.8900 ha         1 ZY2       0.138000
     64 H44         10.8380     4.0780     2.6680 ha         1 ZY2       0.134000
     65 H45         10.7230     1.6210     2.5090 ha         1 ZY2       0.132000
     66 H481         9.9980     7.3340     3.0990 h1         1 ZY2       0.041700
     67 H482        10.4280     6.0180     1.9980 h1         1 ZY2       0.041700
     68 H483        10.8040     5.8870     3.7210 h1         1 ZY2       0.041700
     69 H621        -3.1760     1.5000    -6.3650 h1         1 ZY2       0.061700
     70 H622        -1.6590     1.6390    -5.4490 h1         1 ZY2       0.061700
     71 H221        -4.4810     1.2700    -4.6040 h1         1 ZY2       0.053200
     72 H222        -4.8090    -0.0910    -5.6880 h1         1 ZY2       0.053200
     73 H571        -5.9260    -0.4550    -3.5410 h1         1 ZY2       0.059200
     74 H572        -4.6160    -1.6370    -3.7380 h1         1 ZY2       0.059200
     75 H681        -4.1600    -0.4900    -0.3260 h1         1 ZY2       0.053700
     76 H682        -4.2610    -1.9210    -1.3620 h1         1 ZY2       0.053700
     77 H751         0.8960     1.9190    -4.3330 h1         1 ZY2       0.045367
     78 H752         2.0140     0.5900    -4.6690 h1         1 ZY2       0.045367
     79 H753         1.1810     1.4030    -6.0010 h1         1 ZY2       0.045367
     80 H611        -2.3160    -0.5040    -7.5410 h1         1 ZY2       0.103700
     81 H612        -1.1240     0.8060    -7.7170 h1         1 ZY2       0.103700
     82 H691        -6.5570    -1.6490    -1.7350 hc         1 ZY2       0.042033
     83 H692        -6.5150     0.0770    -1.3500 hc         1 ZY2       0.042033
     84 H693        -6.3990    -1.1210    -0.0540 hc         1 ZY2       0.042033
@<TRIPOS>BOND
     1     1     2 1
     2     1     7 2
     3     1     8 1
     4     2     3 1
     5     3     4 1
     6     3     5 1
     7     4     6 1
     8     4    21 1
     9     5    14 1
    10     6    20 1
    11     8     9 ar
    12     8    13 ar
    13     9    10 ar
    14    10    11 ar
    15    10    34 1
    16    11    12 ar
    17    11    31 1
    18    12    13 ar
    19    12    33 1
    20    14    15 ar
    21    14    19 ar
    22    15    16 ar
    23    16    17 ar
    24    17    18 ar
    25    18    19 ar
    26    20    22 1
    27    22    23 1
    28    23    24 ar
    29    23    28 ar
    30    24    25 ar
    31    25    26 ar
    32    25    29 1
    33    26    27 ar
    34    27    28 ar
    35    29    30 1
    36    31    37 1
    37    31    43 1
    38    32    33 1
    39    32    43 1
    40    33    38 1
    41    34    35 1
    42    34    40 1
    43    35    36 1
    44    35    41 2
    45    35    42 2
    46    36    37 1
    47    38    39 1
    48     2    44 1
    49     3    45 1
    50     4    46 1
    51     5    47 1
    52     5    48 1
    53     6    49 1
    54     6    50 1
    55    21    51 1
    56    20    52 1
    57     9    53 1
    58    13    54 1
    59    15    55 1
    60    19    56 1
    61    16    57 1
    62    17    58 1
    63    18    59 1
    64    22    60 1
    65    22    61 1
    66    24    62 1
    67    28    63 1
    68    26    64 1
    69    27    65 1
    70    30    66 1
    71    30    67 1
    72    30    68 1
    73    32    73 1
    74    32    74 1
    75    43    71 1
    76    43    72 1
    77    37    69 1
    78    37    70 1
    79    38    75 1
    80    38    76 1
    81    40    77 1
    82    40    78 1
    83    40    79 1
    84    36    80 1
    85    36    81 1
    86    39    82 1
    87    39    83 1
    88    39    84 1
@<TRIPOS>SUBSTRUCTURE
     1 ZY2         1 TEMP              0 ****  ****    0 ROOT
