@<TRIPOS>MOLECULE
molecule
   81    84     1     0     0
SMALL
bcc


@<TRIPOS>ATOM
      1 O3           0.0000     0.0000     0.0000 o          1 ZY3      -0.593100
      2 C13          1.2150     0.0000     0.0000 c          1 ZY3       0.672700
      3 C5           1.9550     0.0000     1.2800 ca         1 ZY3      -0.083600
      4 C6           1.2680     0.0020     2.4930 ca         1 ZY3      -0.134000
      5 C7           1.9650     0.0040     3.6920 ca         1 ZY3       0.199600
      6 C12          3.3510    -0.0200     3.7140 ca         1 ZY3      -0.162300
      7 C11          4.2060    -0.0700     4.9550 c3         1 ZY3      -0.052100
      8 C10          3.5290    -0.8260     6.0980 c3         1 ZY3      -0.059400
      9 C9           2.8580     0.1940     7.0590 c3         1 ZY3      -0.230600
     10 S            1.7150     1.1730     6.0420 s6         1 ZY3       1.327900
     11 O1           0.5190     1.4600     6.7550 o          1 ZY3      -0.617300
     12 O2           2.4100     2.1840     5.3260 o          1 ZY3      -0.617300
     13 N2           1.2640     0.0710     4.8890 nh         1 ZY3      -0.675900
     14 C8           0.1310    -0.8260     5.1300 c3         1 ZY3       0.229100
     15 C4           3.3500    -0.0060     1.2910 ca         1 ZY3      -0.203000
     16 C3           4.0350    -0.0110     2.4910 ca         1 ZY3       0.219600
     17 N1           5.4330    -0.0130     2.4850 nu         1 ZY3      -0.830600
     18 C2           6.1590    -0.0030     1.2140 c3         1 ZY3       0.232800
     19 C1           7.6650    -0.0080     1.4870 c3         1 ZY3      -0.109100
     20 N3           1.8890    -0.0080    -1.1680 ns         1 ZY3      -0.578900
     21 C14          1.1570    -0.0160    -2.4360 c3         1 ZY3       0.120700
     22 C15          0.7930     1.4200    -2.8230 c3         1 ZY3      -0.044100
     23 C16         -0.1680     1.9860    -1.8110 ca         1 ZY3      -0.072300
     24 C21          0.3120     2.6530    -0.6990 ca         1 ZY3      -0.117500
     25 C20         -0.5710     3.1720     0.2300 ca         1 ZY3      -0.120000
     26 C19         -1.9320     3.0240     0.0480 ca         1 ZY3      -0.127000
     27 C18         -2.4130     2.3570    -1.0650 ca         1 ZY3      -0.120000
     28 C17         -1.5310     1.8420    -1.9960 ca         1 ZY3      -0.117500
     29 C22          2.0340    -0.6320    -3.5280 c3         1 ZY3       0.135100
     30 O4           3.1710     0.2020    -3.7530 oh         1 ZY3      -0.595800
     31 C23          1.2260    -0.7540    -4.8210 c3         1 ZY3       0.135800
     32 N4           2.0270    -1.4550    -5.8340 n7         1 ZY3      -0.813200
     33 C24          1.2820    -1.5910    -7.0930 c3         1 ZY3       0.207100
     34 C25          2.1330    -2.3120    -8.1050 ca         1 ZY3      -0.053300
     35 C31          2.0810    -3.6900    -8.1940 ca         1 ZY3      -0.158000
     36 C29          2.8650    -4.3540    -9.1260 ca         1 ZY3       0.140100
     37 O5           2.8160    -5.7090    -9.2170 os         1 ZY3      -0.330900
     38 C30          3.6500    -6.3250   -10.2000 c3         1 ZY3       0.129700
     39 C28          3.7000    -3.6320    -9.9680 ca         1 ZY3      -0.218000
     40 C27          3.7490    -2.2550    -9.8740 ca         1 ZY3      -0.092000
     41 C26          2.9620    -1.5950    -8.9480 ca         1 ZY3      -0.143000
     42 H3           2.8890    -0.0560    -1.1670 hn         1 ZY3       0.317500
     43 H6           0.1840    -0.0070     2.4990 ha         1 ZY3       0.164000
     44 H4           3.8980    -0.0130     0.3560 ha         1 ZY3       0.129000
     45 H111         5.1410    -0.5620     4.7160 hc         1 ZY3       0.063200
     46 H112         4.4100     0.9440     5.2790 hc         1 ZY3       0.063200
     47 H101         2.7760    -1.4920     5.6940 hc         1 ZY3       0.061700
     48 H102         4.2720    -1.3990     6.6410 hc         1 ZY3       0.061700
     49 H91C         2.3100    -0.3300     7.8330 h1         1 ZY3       0.101700
     50 H92C         3.6090     0.8390     7.4980 h1         1 ZY3       0.101700
     51 H81C         0.2970    -1.7640     4.6130 h1         1 ZY3       0.047700
     52 H82C         0.0380    -1.0120     6.1940 h1         1 ZY3       0.047700
     53 H83C        -0.7780    -0.3670     4.7630 h1         1 ZY3       0.047700
     54 H1           5.9370     0.0010     3.3490 hn         1 ZY3       0.442800
     55 H21C         5.8940    -0.8830     0.6390 h1         1 ZY3       0.037700
     56 H22C         5.8970     0.8860     0.6540 h1         1 ZY3       0.037700
     57 H11C         7.9630    -0.9820     1.8550 hc         1 ZY3       0.044033
     58 H12C         8.1990     0.2100     0.5700 hc         1 ZY3       0.044033
     59 H13C         7.9000     0.7450     2.2290 hc         1 ZY3       0.044033
     60 H14          0.2510    -0.6010    -2.3270 h1         1 ZY3       0.084700
     61 H151         0.3300     1.4230    -3.8020 hc         1 ZY3       0.060200
     62 H152         1.6910     2.0250    -2.8460 hc         1 ZY3       0.060200
     63 H22          2.3630    -1.6150    -3.2140 h1         1 ZY3       0.034700
     64 H21          1.3790     2.7690    -0.5560 ha         1 ZY3       0.123000
     65 H17         -1.9070     1.3200    -2.8670 ha         1 ZY3       0.123000
     66 H20         -0.1950     3.6950     1.1010 ha         1 ZY3       0.126000
     67 H19         -2.6240     3.4290     0.7770 ha         1 ZY3       0.124000
     68 H18         -3.4810     2.2430    -1.2080 ha         1 ZY3       0.126000
     69 HA           3.9420    -0.3340    -3.8440 ho         1 ZY3       0.407000
     70 H231         0.3180    -1.3130    -4.6290 h1         1 ZY3       0.047200
     71 H232         0.9710     0.2350    -5.1830 h1         1 ZY3       0.047200
     72 HB           2.2760    -2.3620    -5.4930 hn         1 ZY3       0.351800
     73 H241         1.0270    -0.6080    -7.4700 h1         1 ZY3       0.041700
     74 H242         0.3740    -2.1560    -6.9160 h1         1 ZY3       0.041700
     75 H31          1.3970    -4.2480    -7.5660 ha         1 ZY3       0.140000
     76 H26          3.0020    -0.5150    -8.8770 ha         1 ZY3       0.138000
     77 H28          4.3150    -4.1480   -10.6950 ha         1 ZY3       0.134000
     78 H301         3.5130    -7.3990   -10.1670 h1         1 ZY3       0.041367
     79 H302         3.3820    -5.9570   -11.1830 h1         1 ZY3       0.041367
     80 H303         4.6860    -6.0860    -9.9950 h1         1 ZY3       0.041367
     81 H27          4.3990    -1.6900   -10.5320 ha         1 ZY3       0.131000
@<TRIPOS>BOND
     1     1     2 2
     2     2     3 1
     3     2    20 1
     4     3     4 ar
     5     3    15 ar
     6     4     5 ar
     7     5     6 ar
     8     5    13 1
     9     6     7 1
    10     6    16 ar
    11     7     8 1
    12     8     9 1
    13     9    10 1
    14    10    11 2
    15    10    12 2
    16    10    13 1
    17    13    14 1
    18    15    16 ar
    19    16    17 1
    20    17    18 1
    21    18    19 1
    22    20    21 1
    23    21    22 1
    24    21    29 1
    25    22    23 1
    26    23    24 ar
    27    23    28 ar
    28    24    25 ar
    29    25    26 ar
    30    26    27 ar
    31    27    28 ar
    32    29    30 1
    33    29    31 1
    34    31    32 1
    35    32    33 1
    36    33    34 1
    37    34    35 ar
    38    34    41 ar
    39    35    36 ar
    40    36    37 1
    41    36    39 ar
    42    37    38 1
    43    39    40 ar
    44    40    41 ar
    45    20    42 1
    46     4    43 1
    47    15    44 1
    48     7    45 1
    49     7    46 1
    50     8    47 1
    51     8    48 1
    52     9    49 1
    53     9    50 1
    54    14    51 1
    55    14    52 1
    56    14    53 1
    57    17    54 1
    58    18    55 1
    59    18    56 1
    60    19    57 1
    61    19    58 1
    62    19    59 1
    63    21    60 1
    64    22    61 1
    65    22    62 1
    66    29    63 1
    67    24    64 1
    68    28    65 1
    69    25    66 1
    70    26    67 1
    71    27    68 1
    72    30    69 1
    73    31    70 1
    74    31    71 1
    75    32    72 1
    76    33    73 1
    77    33    74 1
    78    35    75 1
    79    41    76 1
    80    39    77 1
    81    38    78 1
    82    38    79 1
    83    38    80 1
    84    40    81 1
@<TRIPOS>SUBSTRUCTURE
     1 ZY3         1 TEMP              0 ****  ****    0 ROOT
