@<TRIPOS>MOLECULE
molecule
   78    82     1     0     0
SMALL
bcc


@<TRIPOS>ATOM
      1 C1           0.0000     0.0000     0.0000 c          1 ZY4       0.672700
      2 N2           1.3470     0.0000     0.0000 ns         1 ZY4      -0.569900
      3 C3           2.0810     0.0000     1.2680 c3         1 ZY4       0.103700
      4 C4           3.4680     0.6100     1.0550 c3         1 ZY4       0.344600
      5 C5           2.2270    -1.4360     1.7730 c3         1 ZY4      -0.045100
      6 C6           4.1870     0.7250     2.4010 c3         1 ZY4       0.111800
      7 O7          -0.6070     0.0010     1.0530 o          1 ZY4      -0.593100
      8 C8          -0.7390     0.0060    -1.2770 ca         1 ZY4      -0.095600
      9 C9          -2.1450     0.0070    -1.2650 ca         1 ZY4      -0.093000
     10 C10         -2.8320     0.0500    -2.4470 ca         1 ZY4       0.172600
     11 C11         -2.1130     0.1480    -3.6640 ca         1 ZY4      -0.121800
     12 C12         -0.7160     0.0570    -3.6850 ca         1 ZY4      -0.042200
     13 C13         -0.0320     0.0170    -2.4790 ca         1 ZY4      -0.133000
     14 C14          0.8660    -1.9950     2.0990 ca         1 ZY4      -0.072300
     15 C15          0.1380    -2.6560     1.1270 ca         1 ZY4      -0.116000
     16 C16         -1.1100    -3.1680     1.4270 ca         1 ZY4      -0.119000
     17 C17         -1.6310    -3.0200     2.6980 ca         1 ZY4      -0.124000
     18 C18         -0.9030    -2.3600     3.6710 ca         1 ZY4      -0.119000
     19 C19          0.3470    -1.8510     3.3730 ca         1 ZY4      -0.116000
     20 N20          5.5190     1.3100     2.1960 n7         1 ZY4      -0.807200
     21 O21          4.2270    -0.2280     0.1800 oh         1 ZY4      -0.607800
     22 C39          6.2390     1.4360     3.4700 c3         1 ZY4       0.165500
     23 C42          7.2810     2.5520     3.3610 c3         1 ZY4      -0.115400
     24 C43          8.0810     2.6240     4.6650 c3         1 ZY4       0.138400
     25 O1           8.6920     1.3580     4.9180 os         1 ZY4      -0.419600
     26 C45          7.7640     0.2830     5.0750 c3         1 ZY4       0.138400
     27 C46          6.9520     0.1180     3.7890 c3         1 ZY4      -0.115400
     28 C7          -2.5710     0.3060    -5.0190 cc         1 ZY4      -0.175400
     29 C57         -1.4780     0.1740    -5.8000 cd         1 ZY4      -0.080100
     30 N1          -0.3640     0.0090    -5.0170 na         1 ZY4      -0.061400
     31 N59         -4.2210    -0.0450    -2.5580 nh         1 ZY4      -0.687900
     32 S60         -5.1120     1.2270    -3.0530 s6         1 ZY4       1.348900
     33 C61         -4.5090     1.8220    -4.6480 c3         1 ZY4      -0.232600
     34 C68          0.9970    -0.1890    -5.5200 c3         1 ZY4       0.045300
     35 C69          1.3060    -1.6870    -5.5810 c3         1 ZY4      -0.116100
     36 O79         -4.8670     2.2060    -2.0520 o          1 ZY4      -0.630800
     37 O80         -6.4130     0.6760    -3.2060 o          1 ZY4      -0.630800
     38 C20         -3.9590     0.6710    -5.5120 c3         1 ZY4       0.034800
     39 O2           3.3340     1.9080     0.4740 oh         1 ZY4      -0.607800
     40 C2          -4.8860    -1.3080    -2.2290 c3         1 ZY4       0.238100
     41 H2           1.8470     0.0200    -0.8670 hn         1 ZY4       0.325500
     42 H3           1.5380     0.5860     1.9990 h1         1 ZY4       0.082700
     43 H51C         2.8440    -1.4450     2.6630 hc         1 ZY4       0.060700
     44 H52C         2.6920    -2.0430     1.0050 hc         1 ZY4       0.060700
     45 H61C         3.6120     1.3590     3.0650 h1         1 ZY4       0.048200
     46 H62C         4.2890    -0.2600     2.8410 h1         1 ZY4       0.048200
     47 HA           2.9580     2.4980     1.1070 ho         1 ZY4       0.427000
     48 HB           4.6840     0.3070    -0.4480 ho         1 ZY4       0.427000
     49 H20          5.4250     2.2130     1.7750 hn         1 ZY4       0.357800
     50 H9          -2.6880     0.3280    -0.3840 ha         1 ZY4       0.178000
     51 H13          0.8690     0.5980    -2.6350 ha         1 ZY4       0.139000
     52 H15          0.5460    -2.7720     0.1310 ha         1 ZY4       0.122500
     53 H19          0.9170    -1.3330     4.1350 ha         1 ZY4       0.122500
     54 H16         -1.6800    -3.6860     0.6650 ha         1 ZY4       0.124500
     55 H17         -2.6100    -3.4200     2.9320 ha         1 ZY4       0.125000
     56 H18         -1.3110    -2.2460     4.6680 ha         1 ZY4       0.124500
     57 H39          5.5410     1.6700     4.2650 h1         1 ZY4       0.024700
     58 H421         6.7810     3.4980     3.1920 hc         1 ZY4       0.058450
     59 H422         7.9530     2.3400     2.5370 hc         1 ZY4       0.058450
     60 H461         7.6170    -0.1390     2.9730 hc         1 ZY4       0.058450
     61 H462         6.2160    -0.6660     3.9240 hc         1 ZY4       0.058450
     62 H431         8.8490     3.3830     4.5760 h1         1 ZY4       0.047200
     63 H432         7.4140     2.8720     5.4830 h1         1 ZY4       0.047200
     64 H451         8.3050    -0.6330     5.2790 h1         1 ZY4       0.047200
     65 H452         7.0940     0.5030     5.8980 h1         1 ZY4       0.047200
     66 H57         -1.4810     0.1960    -6.8830 h4         1 ZY4       0.170000
     67 H201        -4.6110    -0.1900    -5.4270 hc         1 ZY4       0.057200
     68 H202        -3.9030     0.9900    -6.5460 hc         1 ZY4       0.057200
     69 H681         1.0800     0.2370    -6.5130 h1         1 ZY4       0.059200
     70 H682         1.7020     0.2980    -4.8580 h1         1 ZY4       0.059200
     71 H21C        -4.1430    -2.0870    -2.1090 h1         1 ZY4       0.049367
     72 H22C        -5.4420    -1.1940    -1.3060 h1         1 ZY4       0.049367
     73 H23C        -5.5660    -1.5780    -3.0280 h1         1 ZY4       0.049367
     74 H611        -5.3250     2.2990    -5.1770 h1         1 ZY4       0.106700
     75 H612        -3.7200     2.5440    -4.4790 h1         1 ZY4       0.106700
     76 H691         1.2010    -2.1180    -4.5930 hc         1 ZY4       0.049700
     77 H692         0.6150    -2.1710    -6.2610 hc         1 ZY4       0.049700
     78 H693         2.3200    -1.8320    -5.9330 hc         1 ZY4       0.049700
@<TRIPOS>BOND
     1     1     2 1
     2     1     7 2
     3     1     8 1
     4     2     3 1
     5     3     4 1
     6     3     5 1
     7     4     6 1
     8     4    21 1
     9     4    39 1
    10     5    14 1
    11     6    20 1
    12     8     9 ar
    13     8    13 ar
    14     9    10 ar
    15    10    11 ar
    16    10    31 1
    17    11    12 ar
    18    11    28 1
    19    12    13 ar
    20    12    30 1
    21    14    15 ar
    22    14    19 ar
    23    15    16 ar
    24    16    17 ar
    25    17    18 ar
    26    18    19 ar
    27    20    22 1
    28    22    23 1
    29    22    27 1
    30    23    24 1
    31    24    25 1
    32    25    26 1
    33    26    27 1
    34    28    29 2
    35    28    38 1
    36    29    30 1
    37    30    34 1
    38    31    32 1
    39    31    40 1
    40    32    33 1
    41    32    36 2
    42    32    37 2
    43    33    38 1
    44    34    35 1
    45     2    41 1
    46     3    42 1
    47     5    43 1
    48     5    44 1
    49     6    45 1
    50     6    46 1
    51    39    47 1
    52    21    48 1
    53    20    49 1
    54     9    50 1
    55    13    51 1
    56    15    52 1
    57    19    53 1
    58    16    54 1
    59    17    55 1
    60    18    56 1
    61    22    57 1
    62    23    58 1
    63    23    59 1
    64    27    60 1
    65    27    61 1
    66    24    62 1
    67    24    63 1
    68    26    64 1
    69    26    65 1
    70    29    66 1
    71    38    67 1
    72    38    68 1
    73    34    69 1
    74    34    70 1
    75    40    71 1
    76    40    72 1
    77    40    73 1
    78    33    74 1
    79    33    75 1
    80    35    76 1
    81    35    77 1
    82    35    78 1
@<TRIPOS>SUBSTRUCTURE
     1 ZY4         1 TEMP              0 ****  ****    0 ROOT
