@<TRIPOS>MOLECULE
molecule
   40    42     1     0     0
SMALL
bcc


@<TRIPOS>ATOM
      1 C7           0.0000     0.0000     0.0000 ce         1 ZY5      -0.064200
      2 C4           1.4690     0.0000     0.0000 ca         1 ZY5      -0.109800
      3 C3           2.1750     0.0000     1.2140 ca         1 ZY5       0.170100
      4 O21          1.5020     0.0000     2.3940 os         1 ZY5      -0.319900
      5 C22          2.2860    -0.0000     3.5880 c3         1 ZY5       0.126700
      6 C2           3.5580    -0.0000     1.2050 ca         1 ZY5      -0.250000
      7 C5           2.1720    -0.0060    -1.2100 ca         1 ZY5      -0.073000
      8 C6           3.5480    -0.0060    -1.2050 ca         1 ZY5      -0.196000
      9 C1           4.2450     0.0010    -0.0010 ca         1 ZY5       0.150100
     10 O20          5.6020     0.0010    -0.0060 oh         1 ZY5      -0.522100
     11 C8          -0.6750     0.7180    -0.9210 cf         1 ZY5      -0.234800
     12 C13          0.0450     1.6620    -1.8650 c3         1 ZY5      -0.042200
     13 C12         -0.8270     2.9210    -1.9880 c3         1 ZY5      -0.115400
     14 C11         -2.1880     2.5270    -2.5570 c3         1 ZY5       0.122800
     15 N10         -2.8000     1.4530    -1.7890 n2         1 ZY5      -0.606900
     16 C9          -2.1350     0.6110    -1.0540 cf         1 ZY5       0.523200
     17 C14         -2.8590    -0.4660    -0.3370 ca         1 ZY5      -0.248200
     18 C19         -4.1210    -0.2310     0.2090 ca         1 ZY5       0.457200
     19 N18         -4.7640    -1.1870     0.8470 nb         1 ZY5      -0.694000
     20 C17         -4.2500    -2.3930     0.9950 ca         1 ZY5       0.425200
     21 C16         -3.0040    -2.7050     0.4830 ca         1 ZY5      -0.261300
     22 C15         -2.2900    -1.7360    -0.2000 ca         1 ZY5      -0.084000
     23 H7          -0.5380    -0.6670     0.6630 ha         1 ZY5       0.153000
     24 H5           1.6330    -0.0110    -2.1500 ha         1 ZY5       0.147000
     25 H2           4.1060     0.0030     2.1390 ha         1 ZY5       0.148000
     26 H221         2.9200    -0.8790     3.6040 h1         1 ZY5       0.044367
     27 H222         2.9030     0.8900     3.6150 h1         1 ZY5       0.044367
     28 H223         1.6300    -0.0120     4.4500 h1         1 ZY5       0.044367
     29 H6           4.0910    -0.0080    -2.1420 ha         1 ZY5       0.143000
     30 H20          5.9160     0.8890    -0.0450 ho         1 ZY5       0.423000
     31 H131         1.0140     1.9230    -1.4580 hc         1 ZY5       0.057700
     32 H132         0.1590     1.1960    -2.8360 hc         1 ZY5       0.057700
     33 H121        -0.3480     3.6280    -2.6540 hc         1 ZY5       0.052200
     34 H122        -0.9590     3.3670    -1.0100 hc         1 ZY5       0.052200
     35 H111        -2.0600     2.1990    -3.5810 h1         1 ZY5       0.064700
     36 H112        -2.8410     3.3910    -2.5360 h1         1 ZY5       0.064700
     37 H19         -4.5760     0.7470     0.1080 h4         1 ZY5       0.041100
     38 H15         -1.3120    -1.9530    -0.6120 ha         1 ZY5       0.147000
     39 H17         -4.8120    -3.1500     1.5290 h4         1 ZY5       0.022100
     40 H16         -2.5940    -3.7000     0.6100 ha         1 ZY5       0.139000
@<TRIPOS>BOND
     1     1     2 1
     2     1    11 2
     3     2     3 ar
     4     2     7 ar
     5     3     4 1
     6     3     6 ar
     7     4     5 1
     8     6     9 ar
     9     7     8 ar
    10     8     9 ar
    11     9    10 1
    12    11    12 1
    13    11    16 1
    14    12    13 1
    15    13    14 1
    16    14    15 1
    17    15    16 2
    18    16    17 1
    19    17    18 ar
    20    17    22 ar
    21    18    19 ar
    22    19    20 ar
    23    20    21 ar
    24    21    22 ar
    25     1    23 1
    26     7    24 1
    27     6    25 1
    28     5    26 1
    29     5    27 1
    30     5    28 1
    31     8    29 1
    32    10    30 1
    33    12    31 1
    34    12    32 1
    35    13    33 1
    36    13    34 1
    37    14    35 1
    38    14    36 1
    39    18    37 1
    40    22    38 1
    41    20    39 1
    42    21    40 1
@<TRIPOS>SUBSTRUCTURE
     1 ZY5         1 TEMP              0 ****  ****    0 ROOT
