@<TRIPOS>MOLECULE
ZY5
   40    42     1     0     0
SMALL
bcc


@<TRIPOS>ATOM
      1 C7           0.0000     0.0000     0.0000 ce         1 ZY5      -0.042200
      2 C4           1.4690     0.0000     0.0000 ca         1 ZY5      -0.122800
      3 C3           2.1750     0.0000     1.2140 ca         1 ZY5       0.187100
      4 O21          1.5020     0.0000     2.3940 os         1 ZY5      -0.300900
      5 C22          2.2860    -0.0000     3.5880 c3         1 ZY5       0.241700
      6 C2           3.5580    -0.0000     1.2050 ca         1 ZY5      -0.252000
      7 C5           2.1720    -0.0060    -1.2100 ca         1 ZY5      -0.047000
      8 C6           3.5480    -0.0060    -1.2050 ca         1 ZY5      -0.185000
      9 C1           4.2450     0.0010    -0.0010 ca         1 ZY5       0.174100
     10 O20          5.6020     0.0010    -0.0060 oh         1 ZY5      -0.501100
     11 C8          -0.6750     0.7180    -0.9210 cf         1 ZY5      -0.233800
     12 C13          0.0450     1.6620    -1.8650 c3         1 ZY5       0.014800
     13 C12         -0.8270     2.9210    -1.9880 c3         1 ZY5      -0.058400
     14 C11         -2.1880     2.5270    -2.5570 c3         1 ZY5       0.159800
     15 N10         -2.8000     1.4530    -1.7890 n2         1 ZY5      -0.521900
     16 C9          -2.1350     0.6110    -1.0540 cf         1 ZY5       0.492200
     17 C14         -2.8590    -0.4660    -0.3370 ca         1 ZY5      -0.246200
     18 C19         -4.1210    -0.2310     0.2090 ca         1 ZY5       0.437200
     19 N18         -4.7640    -1.1870     0.8470 nb         1 ZY5      -0.587000
     20 C17         -4.2500    -2.3930     0.9950 ca         1 ZY5       0.408200
     21 C16         -3.0040    -2.7050     0.4830 ca         1 ZY5      -0.227300
     22 C15         -2.2900    -1.7360    -0.2000 ca         1 ZY5      -0.070000
     23 H7          -0.5380    -0.6670     0.6630 ha         1 ZY5       0.132000
     24 H5           1.6330    -0.0110    -2.1500 ha         1 ZY5       0.120000
     25 H2           4.1060     0.0030     2.1390 ha         1 ZY5       0.134000
     26 H221         2.9200    -0.8790     3.6040 h1         1 ZY5       0.000033
     27 H222         2.9030     0.8900     3.6150 h1         1 ZY5       0.000033
     28 H223         1.6300    -0.0120     4.4500 h1         1 ZY5       0.000033
     29 H6           4.0910    -0.0080    -2.1420 ha         1 ZY5       0.118000
     30 H20          5.9160     0.8890    -0.0450 ho         1 ZY5       0.405000
     31 H131         0.1590     1.1960    -2.8360 hc         1 ZY5       0.032200
     32 H132         1.0140     1.9230    -1.4580 hc         1 ZY5       0.032200
     33 H121        -0.3480     3.6280    -2.6540 hc         1 ZY5       0.023700
     34 H122        -0.9590     3.3670    -1.0100 hc         1 ZY5       0.023700
     35 H111        -2.0600     2.1990    -3.5810 h1         1 ZY5       0.026700
     36 H112        -2.8410     3.3910    -2.5360 h1         1 ZY5       0.026700
     37 H19         -4.5760     0.7470     0.1080 h4         1 ZY5      -0.005900
     38 H15         -1.3120    -1.9530    -0.6120 ha         1 ZY5       0.122000
     39 H17         -4.8120    -3.1500     1.5290 h4         1 ZY5      -0.021900
     40 H16         -2.5940    -3.7000     0.6100 ha         1 ZY5       0.113000
@<TRIPOS>BOND
     1     1     2 1   
     2     1    11 2   
     3     1    23 1   
     4     2     3 ar  
     5     2     7 ar  
     6     3     4 1   
     7     3     6 ar  
     8     4     5 1   
     9     5    26 1   
    10     5    27 1   
    11     5    28 1   
    12     6     9 ar  
    13     6    25 1   
    14     7     8 ar  
    15     7    24 1   
    16     8     9 ar  
    17     8    29 1   
    18     9    10 1   
    19    10    30 1   
    20    11    12 1   
    21    11    16 1   
    22    12    13 1   
    23    12    31 1   
    24    12    32 1   
    25    13    14 1   
    26    13    33 1   
    27    13    34 1   
    28    14    15 1   
    29    14    35 1   
    30    14    36 1   
    31    15    16 2   
    32    16    17 1   
    33    17    18 ar  
    34    17    22 ar  
    35    18    19 ar  
    36    18    37 1   
    37    19    20 ar  
    38    20    21 ar  
    39    20    39 1   
    40    21    22 ar  
    41    21    40 1   
    42    22    38 1   
@<TRIPOS>SUBSTRUCTURE
     1 ZY5         1 TEMP              0 ****  ****    0 ROOT
