@<TRIPOS>MOLECULE
ZY6
   43    46     1     0     0
SMALL
bcc


@<TRIPOS>ATOM
      1 CAE          0.0000     0.0000     0.0000 ca         1 ZY6      -0.089000
      2 CAC          1.3810     0.0000     0.0000 ca         1 ZY6      -0.101000
      3 CAB          2.0750     0.0000     1.1960 ca         1 ZY6      -0.093000
      4 CAD          1.3930    -0.0010     2.3990 ca         1 ZY6      -0.101000
      5 CAF          0.0120    -0.0020     2.4110 ca         1 ZY6      -0.089000
      6 CAQ         -0.6930    -0.0010     1.2100 cp         1 ZY6      -0.035000
      7 CAR         -2.1760    -0.0010     1.2160 cp         1 ZY6      -0.145300
      8 CAG         -2.8850     0.9940     0.5430 ca         1 ZY6       0.459200
      9 NAN         -4.2000     1.0130     0.5370 nb         1 ZY6      -0.560000
     10 CAU         -4.9220     0.0910     1.1660 ca         1 ZY6       0.274800
     11 NAO         -6.2680    -0.1100     1.3090 na         1 ZY6       0.352200
     12 NAM         -6.4610    -1.2560     2.0890 nc         1 ZY6      -0.604100
     13 CAH         -5.3070    -1.7580     2.4240 cd         1 ZY6       0.403800
     14 CAT         -4.2880    -0.9490     1.8700 ca         1 ZY6      -0.408200
     15 CAS         -2.8820    -1.0030     1.8940 ca         1 ZY6       0.079600
     16 NAV         -2.2160    -2.0140     2.5710 nh         1 ZY6      -0.374000
     17 CAL         -2.5000    -3.3260     1.9700 c3         1 ZY6       0.116800
     18 CAK         -2.5640    -2.0090     3.9990 c3         1 ZY6       0.088800
     19 CAJ         -1.7640    -3.0990     4.7160 c3         1 ZY6       0.233400
     20 OAP         -2.0280    -4.3610     4.1000 os         1 ZY6      -0.449600
     21 CAW         -1.7010    -4.4020     2.7080 c3         1 ZY6       0.162100
     22 CAI         -2.0530    -5.7790     2.1400 c3         1 ZY6      -0.049200
     23 NAA         -1.2860    -6.8110     2.8490 nz         1 ZY6       0.092400
     24 HAE         -0.5430     0.0010    -0.9370 ha         1 ZY6       0.107000
     25 HAC          1.9210     0.0010    -0.9390 ha         1 ZY6       0.108000
     26 HAB          3.1590     0.0010     1.1910 ha         1 ZY6       0.108000
     27 HAD          1.9420    -0.0020     3.3330 ha         1 ZY6       0.108000
     28 HAF         -0.5220    -0.0030     3.3540 ha         1 ZY6       0.107000
     29 HAG         -2.3410     1.7680     0.0160 h4         1 ZY6      -0.002900
     30 HAO         -6.9910     0.4650     0.9230 hn         1 ZY6       0.168700
     31 HAH         -5.1540    -2.6460     3.0260 h4         1 ZY6       0.011800
     32 HAL1        -3.5590    -3.5400     2.0550 h1         1 ZY6       0.037700
     33 HAL2        -2.2110    -3.3140     0.9260 h1         1 ZY6       0.037700
     34 HAK1        -3.6230    -2.2040     4.1130 h1         1 ZY6       0.044700
     35 HAK2        -2.3210    -1.0430     4.4260 h1         1 ZY6       0.044700
     36 HAW         -0.6420    -4.2130     2.5810 h1         1 ZY6       0.039700
     37 HAJ1        -2.0600    -3.1370     5.7580 h1         1 ZY6       0.029700
     38 HAJ2        -0.7060    -2.8770     4.6440 h1         1 ZY6       0.029700
     39 HAI1        -3.1130    -5.9630     2.2710 hx         1 ZY6       0.089200
     40 HAI2        -1.8090    -5.8090     1.0850 hx         1 ZY6       0.089200
     41 HAA1        -1.5930    -6.8610     3.8010 hn         1 ZY6       0.225467
     42 HAA2        -1.4290    -7.6970     2.4060 hn         1 ZY6       0.225467
     43 HAA3        -0.3130    -6.5800     2.8240 hn         1 ZY6       0.225467
@<TRIPOS>BOND
     1     1     2 ar  
     2     1     6 ar  
     3     1    24 1   
     4     2     3 ar  
     5     2    25 1   
     6     3     4 ar  
     7     3    26 1   
     8     4     5 ar  
     9     4    27 1   
    10     5     6 ar  
    11     5    28 1   
    12     6     7 1   
    13     7     8 ar  
    14     7    15 ar  
    15     8     9 ar  
    16     8    29 1   
    17     9    10 ar  
    18    10    11 1   
    19    10    14 ar  
    20    11    12 1   
    21    11    30 1   
    22    12    13 2   
    23    13    14 1   
    24    13    31 1   
    25    14    15 ar  
    26    15    16 1   
    27    16    17 1   
    28    16    18 1   
    29    17    21 1   
    30    17    32 1   
    31    17    33 1   
    32    18    19 1   
    33    18    34 1   
    34    18    35 1   
    35    19    20 1   
    36    19    37 1   
    37    19    38 1   
    38    20    21 1   
    39    21    22 1   
    40    21    36 1   
    41    22    23 1   
    42    22    39 1   
    43    22    40 1   
    44    23    41 1   
    45    23    42 1   
    46    23    43 1   
@<TRIPOS>SUBSTRUCTURE
     1 ZY6         1 TEMP              0 ****  ****    0 ROOT
