@<TRIPOS>MOLECULE
molecule
   43    46     1     0     0
SMALL
bcc


@<TRIPOS>ATOM
      1 CAE          0.0000     0.0000     0.0000 ca         1 ZY6      -0.110000
      2 CAC          1.3810     0.0000     0.0000 ca         1 ZY6      -0.130000
      3 CAB          2.0750     0.0000     1.1960 ca         1 ZY6      -0.120000
      4 CAD          1.3930    -0.0010     2.3990 ca         1 ZY6      -0.130000
      5 CAF          0.0120    -0.0020     2.4110 ca         1 ZY6      -0.110000
      6 CAQ         -0.6930    -0.0010     1.2100 cp         1 ZY6      -0.037000
      7 CAR         -2.1760    -0.0010     1.2160 cp         1 ZY6      -0.166300
      8 CAG         -2.8850     0.9940     0.5430 ca         1 ZY6       0.494200
      9 NAN         -4.2000     1.0130     0.5370 nb         1 ZY6      -0.700000
     10 CAU         -4.9220     0.0910     1.1660 ca         1 ZY6       0.493800
     11 NAO         -6.2680    -0.1100     1.3090 na         1 ZY6      -0.129800
     12 NAM         -6.4610    -1.2560     2.0890 nc         1 ZY6      -0.464100
     13 CAH         -5.3070    -1.7580     2.4240 cd         1 ZY6       0.355800
     14 CAT         -4.2880    -0.9490     1.8700 ca         1 ZY6      -0.406200
     15 CAS         -2.8820    -1.0030     1.8940 ca         1 ZY6       0.160600
     16 NAV         -2.2160    -2.0140     2.5710 nh         1 ZY6      -0.600000
     17 CAL         -2.5000    -3.3260     1.9700 c3         1 ZY6       0.146800
     18 CAK         -2.5640    -2.0090     3.9990 c3         1 ZY6       0.122800
     19 CAJ         -1.7640    -3.0990     4.7160 c3         1 ZY6       0.142400
     20 OAP         -2.0280    -4.3610     4.1000 os         1 ZY6      -0.459600
     21 CAW         -1.7010    -4.4020     2.7080 c3         1 ZY6       0.113100
     22 CAI         -2.0530    -5.7790     2.1400 c3         1 ZY6       0.102800
     23 NAA         -1.2860    -6.8110     2.8490 nz         1 ZY6      -0.805600
     24 HAE         -0.5430     0.0010    -0.9370 ha         1 ZY6       0.132000
     25 HAC          1.9210     0.0010    -0.9390 ha         1 ZY6       0.136500
     26 HAB          3.1590     0.0010     1.1910 ha         1 ZY6       0.137000
     27 HAD          1.9420    -0.0020     3.3330 ha         1 ZY6       0.136500
     28 HAF         -0.5220    -0.0030     3.3540 ha         1 ZY6       0.132000
     29 HAG         -2.3410     1.7680     0.0160 h4         1 ZY6       0.049100
     30 HAO         -6.9910     0.4650     0.9230 hn         1 ZY6       0.355700
     31 HAH         -5.1540    -2.6460     3.0260 h4         1 ZY6       0.051800
     32 HAL1        -3.5590    -3.5400     2.0550 h1         1 ZY6       0.063700
     33 HAL2        -2.2110    -3.3140     0.9260 h1         1 ZY6       0.063700
     34 HAK1        -3.6230    -2.2040     4.1130 h1         1 ZY6       0.070200
     35 HAK2        -2.3210    -1.0430     4.4260 h1         1 ZY6       0.070200
     36 HAW         -0.6420    -4.2130     2.5810 h1         1 ZY6       0.072700
     37 HAJ1        -2.0600    -3.1370     5.7580 h1         1 ZY6       0.075200
     38 HAJ2        -0.7060    -2.8770     4.6440 h1         1 ZY6       0.075200
     39 HAI1        -3.1130    -5.9630     2.2710 hx         1 ZY6       0.118200
     40 HAI2        -1.8090    -5.8090     1.0850 hx         1 ZY6       0.118200
     41 HAA1        -1.5930    -6.8610     3.8010 hn         1 ZY6       0.460467
     42 HAA2        -1.4290    -7.6970     2.4060 hn         1 ZY6       0.460467
     43 HAA3        -0.3130    -6.5800     2.8240 hn         1 ZY6       0.460467
@<TRIPOS>BOND
     1     1     2 ar
     2     1     6 ar
     3     2     3 ar
     4     3     4 ar
     5     4     5 ar
     6     5     6 ar
     7     6     7 1
     8     7     8 ar
     9     7    15 ar
    10     8     9 ar
    11     9    10 ar
    12    10    11 1
    13    10    14 ar
    14    11    12 1
    15    12    13 2
    16    13    14 1
    17    14    15 ar
    18    15    16 1
    19    16    17 1
    20    16    18 1
    21    17    21 1
    22    18    19 1
    23    19    20 1
    24    20    21 1
    25    21    22 1
    26    22    23 1
    27     1    24 1
    28     2    25 1
    29     3    26 1
    30     4    27 1
    31     5    28 1
    32     8    29 1
    33    11    30 1
    34    13    31 1
    35    17    32 1
    36    17    33 1
    37    18    34 1
    38    18    35 1
    39    21    36 1
    40    19    37 1
    41    19    38 1
    42    22    39 1
    43    22    40 1
    44    23    41 1
    45    23    42 1
    46    43    23 1
@<TRIPOS>SUBSTRUCTURE
     1 ZY6         1 TEMP              0 ****  ****    0 ROOT
