@<TRIPOS>MOLECULE
ZY7
   43    45     1     0     0
SMALL
bcc


@<TRIPOS>ATOM
      1 C7           0.0000     0.0000     0.0000 ce         1 ZY7      -0.034200
      2 C4           1.4690     0.0000     0.0000 ca         1 ZY7      -0.150800
      3 C3           2.1750     0.0000     1.2150 ca         1 ZY7       0.207100
      4 O21          1.5010     0.0010     2.3940 os         1 ZY7      -0.299900
      5 C22          2.2850     0.0020     3.5880 c3         1 ZY7       0.241700
      6 C2           3.5570    -0.0000     1.2050 ca         1 ZY7      -0.259000
      7 C5           2.1730    -0.0070    -1.2100 ca         1 ZY7      -0.021000
      8 C6           3.5480    -0.0070    -1.2040 ca         1 ZY7      -0.257000
      9 C1           4.2450    -0.0010     0.0000 ca         1 ZY7       0.202100
     10 O20          5.6020    -0.0010    -0.0040 os         1 ZY7      -0.306900
     11 C8          -0.6740     0.7180    -0.9220 cf         1 ZY7      -0.241800
     12 C13          0.0460     1.6610    -1.8660 c3         1 ZY7       0.015800
     13 C12         -0.8250     2.9210    -1.9890 c3         1 ZY7      -0.058400
     14 C11         -2.1870     2.5270    -2.5590 c3         1 ZY7       0.160800
     15 N10         -2.7990     1.4530    -1.7900 n2         1 ZY7      -0.524900
     16 C9          -2.1360     0.6110    -1.0540 cf         1 ZY7       0.494200
     17 C14         -2.8590    -0.4650    -0.3370 ca         1 ZY7      -0.245200
     18 C19         -4.1200    -0.2290     0.2080 ca         1 ZY7       0.437200
     19 N18         -4.7640    -1.1860     0.8460 nb         1 ZY7      -0.588000
     20 C17         -4.2500    -2.3910     0.9960 ca         1 ZY7       0.408200
     21 C16         -3.0040    -2.7040     0.4840 ca         1 ZY7      -0.227300
     22 C15         -2.2900    -1.7360    -0.1990 ca         1 ZY7      -0.070000
     23 C23          6.2470    -0.0020    -1.2800 c3         1 ZY7       0.244700
     24 H7          -0.5380    -0.6670     0.6630 ha         1 ZY7       0.130000
     25 H221         1.6290     0.0020     4.4500 h1         1 ZY7       0.000367
     26 H222         2.9100    -0.8830     3.6100 h1         1 ZY7       0.000367
     27 H223         2.9100     0.8860     3.6100 h1         1 ZY7       0.000367
     28 H2           4.1040     0.0020     2.1400 ha         1 ZY7       0.136000
     29 H5           1.6350    -0.0110    -2.1500 ha         1 ZY7       0.118000
     30 H6           4.0920    -0.0100    -2.1420 ha         1 ZY7       0.124000
     31 H131         1.0150     1.9220    -1.4580 hc         1 ZY7       0.031700
     32 H132         0.1590     1.1950    -2.8370 hc         1 ZY7       0.031700
     33 H121        -0.9580     3.3670    -1.0110 hc         1 ZY7       0.023700
     34 H122        -0.3460     3.6290    -2.6540 hc         1 ZY7       0.023700
     35 H111        -2.0590     2.1990    -3.5830 h1         1 ZY7       0.025700
     36 H112        -2.8400     3.3910    -2.5380 h1         1 ZY7       0.025700
     37 H19         -4.5750     0.7480     0.1060 h4         1 ZY7      -0.005900
     38 H17         -4.8120    -3.1470     1.5300 h4         1 ZY7      -0.022900
     39 H16         -2.5940    -3.6980     0.6120 ha         1 ZY7       0.113000
     40 H15         -1.3110    -1.9530    -0.6100 ha         1 ZY7       0.122000
     41 H231         7.3210     0.0010    -1.1410 h1         1 ZY7      -0.000967
     42 H232         5.9560    -0.8880    -1.8310 h1         1 ZY7      -0.000967
     43 H233         5.9520     0.8810    -1.8340 h1         1 ZY7      -0.000967
@<TRIPOS>BOND
     1     1     2 1   
     2     1    11 2   
     3     1    24 1   
     4     2     3 ar  
     5     2     7 ar  
     6     3     4 1   
     7     3     6 ar  
     8     4     5 1   
     9     5    25 1   
    10     5    26 1   
    11     5    27 1   
    12     6     9 ar  
    13     6    28 1   
    14     7     8 ar  
    15     7    29 1   
    16     8     9 ar  
    17     8    30 1   
    18     9    10 1   
    19    10    23 1   
    20    11    12 1   
    21    11    16 1   
    22    12    13 1   
    23    12    31 1   
    24    12    32 1   
    25    13    14 1   
    26    13    33 1   
    27    13    34 1   
    28    14    15 1   
    29    14    35 1   
    30    14    36 1   
    31    15    16 2   
    32    16    17 1   
    33    17    18 ar  
    34    17    22 ar  
    35    18    19 ar  
    36    18    37 1   
    37    19    20 ar  
    38    20    21 ar  
    39    20    38 1   
    40    21    22 ar  
    41    21    39 1   
    42    22    40 1   
    43    23    41 1   
    44    23    42 1   
    45    23    43 1   
@<TRIPOS>SUBSTRUCTURE
     1 ZY7         1 TEMP              0 ****  ****    0 ROOT
