@<TRIPOS>MOLECULE
molecule
   19    19     1     0     0
SMALL
bcc


@<TRIPOS>ATOM
      1 F            0.0000     0.0000     0.0000 f          1 ZYB      -0.099900
      2 C2           1.3510     0.0000     0.0000 ca         1 ZYB       0.203900
      3 C1           2.0420     0.0000     1.2020 ca         1 ZYB      -0.153000
      4 C3           2.0420    -0.0050    -1.2010 ca         1 ZYB      -0.153000
      5 C4           3.4210    -0.0050    -1.2070 ca         1 ZYB      -0.061000
      6 C5           4.1210     0.0000     0.0000 ca         1 ZYB      -0.211900
      7 C            3.4200     0.0000     1.2070 ca         1 ZYB      -0.061000
      8 C6           5.6000     0.0000     0.0000 ce         1 ZYB       0.499800
      9 N            6.2930     0.0060     1.2000 nz         1 ZYB      -0.779600
     10 N1           6.2510    -0.0060    -1.1260 n2         1 ZYB      -0.347200
     11 O            7.6670    -0.0060    -1.1260 oh         1 ZYB      -0.387500
     12 H1           1.4970     0.0000     2.1380 ha         1 ZYB       0.177500
     13 H3           1.4980    -0.0090    -2.1380 ha         1 ZYB       0.177500
     14 H            3.9590     0.0020     2.1470 ha         1 ZYB       0.142500
     15 H4           3.9590    -0.0070    -2.1460 ha         1 ZYB       0.142500
     16 HN1          6.0530    -0.8100     1.7280 hn         1 ZYB       0.473133
     17 HN2          6.0500     0.8250     1.7210 hn         1 ZYB       0.473133
     18 HB           7.9820    -0.0110    -2.0150 ho         1 ZYB       0.491000
     19 HN3          7.2770     0.0070     1.0170 hn         1 ZYB       0.473133
@<TRIPOS>BOND
     1     1     2 1
     2     2     3 ar
     3     2     4 ar
     4     3     7 ar
     5     4     5 ar
     6     5     6 ar
     7     6     7 ar
     8     6     8 1
     9     8     9 1
    10     8    10 2
    11    10    11 1
    12     3    12 1
    13     4    13 1
    14     7    14 1
    15     5    15 1
    16     9    16 1
    17     9    17 1
    18    11    18 1
    19    19     9 1
@<TRIPOS>SUBSTRUCTURE
     1 ZYB         1 TEMP              0 ****  ****    0 ROOT
