@<TRIPOS>MOLECULE
molecule
   30    30     1     0     0
SMALL
bcc


@<TRIPOS>ATOM
      1 CAA          0.0000     0.0000     0.0000 c3         1 ZYC      -0.095100
      2 CAB          9.8610    -0.0130     4.8400 c3         1 ZYC       0.121700
      3 OAC          4.0850     0.0020     0.5580 o          1 ZYC      -0.505000
      4 OAD          7.3610    -0.0160     8.1890 oh         1 ZYC      -0.499100
      5 CAE          3.8870     0.0010     2.8330 ce         1 ZYC      -0.128200
      6 CAF          5.2260     0.0020     3.0090 cf         1 ZYC      -0.290200
      7 CAG          4.9380     0.0000     5.4790 ca         1 ZYC      -0.155000
      8 CAH          5.4680    -0.0050     6.7500 ca         1 ZYC      -0.144000
      9 CAI          7.1760     0.0020     4.5530 ca         1 ZYC      -0.148000
     10 CAJ          1.5290     0.0000     0.0000 c3         1 ZYC       0.146400
     11 OAK          9.0460    -0.0140     6.0140 os         1 ZYC      -0.310900
     12 OAL          2.0070     0.0000     1.3470 os         1 ZYC      -0.436900
     13 CAM          3.3440     0.0010     1.5230 c          1 ZYC       0.627300
     14 CAN          5.7880     0.0020     4.3670 ca         1 ZYC      -0.118800
     15 CAO          6.8440    -0.0100     6.9330 ca         1 ZYC       0.117100
     16 CAP          7.6980    -0.0090     5.8300 ca         1 ZYC       0.112100
     17 HAA         -0.3610    -0.0000    -1.0210 hc         1 ZYC       0.045700
     18 HAAA        -0.3610    -0.8840     0.5110 hc         1 ZYC       0.045700
     19 HAAB        -0.3610     0.8850     0.5100 hc         1 ZYC       0.045700
     20 HAB         10.9060    -0.0060     5.1260 h1         1 ZYC       0.047367
     21 HABA         9.6420     0.8680     4.2490 h1         1 ZYC       0.047367
     22 HABB         9.6530    -0.9010     4.2560 h1         1 ZYC       0.047367
     23 HOAD         7.2490     0.8350     8.5790 ho         1 ZYC       0.423000
     24 HAE          3.2280     0.0000     3.6920 ha         1 ZYC       0.099000
     25 HAF          5.2900     0.8770     3.6450 ha         1 ZYC       0.344000
     26 HAG          3.8640     0.0040     5.3400 ha         1 ZYC       0.147000
     27 HAH          4.8090    -0.0060     7.6100 ha         1 ZYC       0.150000
     28 HAI          7.8370    -0.0590     3.6960 ha         1 ZYC       0.170000
     29 HAJ          1.8900     0.8840    -0.5110 h1         1 ZYC       0.046700
     30 HAJA         1.8900    -0.8840    -0.5110 h1         1 ZYC       0.046700
@<TRIPOS>BOND
     1     1    17 1
     2     1    18 1
     3     1    19 1
     4     2    11 1
     5     2    20 1
     6     2    21 1
     7     2    22 1
     8     4    15 1
     9     4    23 1
    10     5    13 1
    11     5     6 2
    12     5    24 1
    13     6    25 1
    14     7    14 ar
    15     7    26 1
    16     8     7 ar
    17     8    15 ar
    18     8    27 1
    19     9    28 1
    20    10     1 1
    21    10    12 1
    22    10    29 1
    23    10    30 1
    24    12    13 1
    25    13     3 2
    26    14     6 1
    27    14     9 ar
    28    15    16 ar
    29    16     9 ar
    30    16    11 1
@<TRIPOS>SUBSTRUCTURE
     1 ZYC         1 TEMP              0 ****  ****    0 ROOT
