@<TRIPOS>MOLECULE
ZYC
   30    30     1     0     0
SMALL
bcc


@<TRIPOS>ATOM
      1 CAA         0.0140   -0.1690    0.0640 c3        1 ZYC     -0.100100
      2 CAB         9.9200   -0.1650    4.8410 c3        1 ZYC      0.108700
      3 OAC         4.0450    0.3600    0.3510 o         1 ZYC     -0.553000
      4 OAD         7.5600   -0.2050    8.1390 oh        1 ZYC     -0.470100
      5 CAE         3.8660    0.0140    2.7610 ce        1 ZYC     -0.220200
      6 CAF         5.1660    0.1680    3.0580 cf        1 ZYC     -0.015200
      7 CAG         4.9450    0.0590    5.5420 ca        1 ZYC     -0.094000
      8 CAH         5.5290   -0.0310    6.8040 ca        1 ZYC     -0.198000
      9 CAI         7.1380   -0.0030    4.5110 ca        1 ZYC     -0.153000
     10 CAJ         1.5000    0.0580   -0.0690 c3        1 ZYC      0.139400
     11 OAK         9.0900   -0.1800    5.9970 os        1 ZYC     -0.302900
     12 OAL         2.0420   -0.0420    1.2600 os        1 ZYC     -0.439900
     13 CAM         3.3960    0.1320    1.3780 c         1 ZYC      0.633300
     14 CAN         5.7370    0.0720    4.3890 ca        1 ZYC     -0.085800
     15 CAO         6.9170   -0.1120    6.9300 ca        1 ZYC      0.122100
     16 CAP         7.7320   -0.0970    5.7660 ca        1 ZYC      0.098100
     17 HAA        -0.4420    0.6000    0.7310 hc        1 ZYC      0.047367
     18 HAAA       -0.4550   -0.1020   -0.9470 hc        1 ZYC      0.047367
     19 HAAB       -0.1920   -1.1770    0.4970 hc        1 ZYC      0.047367
     20 HAB        10.9530   -0.2410    5.2670 h1        1 ZYC      0.046367
     21 HABA        9.7000   -1.0400    4.1830 h1        1 ZYC      0.046367
     22 HABB        9.7960    0.7910    4.2770 h1        1 ZYC      0.046367
     23 HOAD        6.8840   -0.2030    8.8330 ho        1 ZYC      0.418000
     24 HAE         3.0880   -0.2100    3.5070 ha        1 ZYC      0.154000
     25 HAF         5.8870    0.3800    2.2430 ha        1 ZYC      0.147000
     26 HAG         3.8500    0.1270    5.4630 ha        1 ZYC      0.140000
     27 HAH         4.8960   -0.0390    7.7040 ha        1 ZYC      0.140000
     28 HAI         7.7580    0.0110    3.6020 ha        1 ZYC      0.146000
     29 HAJ         1.7360    1.0750   -0.4780 h1        1 ZYC      0.051700
     30 HAJA        1.9880   -0.7180   -0.7150 h1        1 ZYC      0.051700
@<TRIPOS>BOND
     1    1   10 1   
     2    1   17 1   
     3    1   18 1   
     4    1   19 1   
     5    2   11 1   
     6    2   20 1   
     7    2   21 1   
     8    2   22 1   
     9    3   13 2   
    10    4   15 1   
    11    4   23 1   
    12    5    6 2   
    13    5   13 1   
    14    5   24 1   
    15    6   14 1   
    16    6   25 1   
    17    7    8 ar  
    18    7   14 ar  
    19    7   26 1   
    20    8   15 ar  
    21    8   27 1   
    22    9   14 ar  
    23    9   16 ar  
    24    9   28 1   
    25   10   12 1   
    26   10   29 1   
    27   10   30 1   
    28   11   16 1   
    29   12   13 1   
    30   15   16 ar  
@<TRIPOS>SUBSTRUCTURE
     1 ZYC         1 TEMP              0 ****  ****    0 ROOT
