@<TRIPOS>MOLECULE
ZYD
   74    76     1     0     0
SMALL
bcc


@<TRIPOS>ATOM
      1 C1          0.4770   -0.9900   -0.5940 c3        1 ZYD      0.186300
      2 O1         -0.0760    0.3190   -0.4750 oh        1 ZYD     -0.588800
      3 C2          1.9980   -0.9680   -0.4780 c3        1 ZYD     -0.146400
      4 O2          3.8460   -0.6670    1.0660 oh        1 ZYD     -0.599800
      5 C3          2.4310   -0.6070    0.9380 c3        1 ZYD      0.146100
      6 O3         -5.4710    7.4520    7.1480 oh        1 ZYD     -0.597800
      7 C4          1.8650   -1.6040    1.9460 c3        1 ZYD     -0.035200
      8 C5          0.3790   -1.6850    1.8360 ce        1 ZYD     -0.073200
      9 C6         -0.3870   -1.6320    2.9470 cf        1 ZYD     -0.108000
     10 C7         -1.8310   -1.6660    2.9600 cf        1 ZYD     -0.150000
     11 C8         -2.5970   -2.0410    3.9990 c2        1 ZYD     -0.081400
     12 C9         -2.0830   -2.5840    5.2930 c3        1 ZYD     -0.043200
     13 C10        -0.1510   -1.8400    0.4820 ce        1 ZYD     -0.069200
     14 C11        -2.7630   -2.0020    6.5230 c3        1 ZYD     -0.073400
     15 C12        -4.2750   -1.9070    6.4130 c3        1 ZYD     -0.064400
     16 C13        -4.6700   -1.2040    5.1260 c3        1 ZYD     -0.044000
     17 C14        -4.0820   -2.0430    3.9570 c3        1 ZYD     -0.036500
     18 C15        -4.8490   -1.5580    2.7340 c3        1 ZYD     -0.073400
     19 C16        -6.2520   -1.2480    3.2640 c3        1 ZYD     -0.080400
     20 C17        -6.1690   -1.2200    4.7940 c3        1 ZYD     -0.074400
     21 C18        -4.1560    0.2360    5.0810 c3        1 ZYD     -0.070400
     22 C19        -1.1280   -2.7020    0.1740 c2        1 ZYD     -0.192000
     23 C20        -4.5180    1.0570    6.3010 c3        1 ZYD     -0.077400
     24 C21        -4.2260    2.5250    6.0700 c3        1 ZYD     -0.079400
     25 C22        -4.5280    3.3460    7.3060 c3        1 ZYD     -0.078400
     26 C23        -4.2550    4.8160    7.0670 c3        1 ZYD     -0.079400
     27 C24        -4.5180    5.6270    8.3160 c3        1 ZYD     -0.064400
     28 C25        -4.4310    7.1380    8.0770 c3        1 ZYD      0.147800
     29 C26        -3.0790    7.5420    7.5010 c3        1 ZYD     -0.123100
     30 C27        -4.6760    7.8780    9.3890 c3        1 ZYD     -0.123100
     31 H1          0.2000   -1.3990   -1.6110 h1        1 ZYD      0.034700
     32 HO1         0.3780    0.8680   -1.1260 ho        1 ZYD      0.396000
     33 H2          2.4030   -1.9780   -0.7450 hc        1 ZYD      0.052700
     34 H2A         2.4200   -0.2260   -1.2030 hc        1 ZYD      0.052700
     35 HO2         4.2080   -0.0280    0.4410 ho        1 ZYD      0.398000
     36 H3          2.0720    0.4320    1.1830 h1        1 ZYD      0.048700
     37 HO3        -5.4210    8.4020    6.9880 ho        1 ZYD      0.396000
     38 H4          2.1800   -1.2930    2.9770 hc        1 ZYD      0.062200
     39 H4A         2.3100   -2.6160    1.7510 hc        1 ZYD      0.062200
     40 H6          0.1090   -1.5200    3.9280 ha        1 ZYD      0.124000
     41 H7         -2.3160   -1.3350    2.0210 ha        1 ZYD      0.137000
     42 H9         -0.9780   -2.4150    5.3870 hc        1 ZYD      0.046200
     43 H9A        -2.2450   -3.6970    5.2800 hc        1 ZYD      0.046200
     44 H11        -2.5010   -2.6380    7.4090 hc        1 ZYD      0.041200
     45 H11A       -2.3490   -0.9760    6.7170 hc        1 ZYD      0.041200
     46 H12        -4.7200   -2.9370    6.4260 hc        1 ZYD      0.041700
     47 H12A       -4.6840   -1.3570    7.3000 hc        1 ZYD      0.041700
     48 H14        -4.3970   -3.1170    4.1290 hc        1 ZYD      0.053700
     49 H15        -4.8760   -2.3380    1.9350 hc        1 ZYD      0.046200
     50 H15A       -4.3800   -0.6390    2.3020 hc        1 ZYD      0.046200
     51 H16        -6.9810   -2.0260    2.9290 hc        1 ZYD      0.040200
     52 H16A       -6.6050   -0.2620    2.8730 hc        1 ZYD      0.040200
     53 H17        -6.6920   -0.3260    5.2100 hc        1 ZYD      0.043700
     54 H17A       -6.6490   -2.1320    5.2290 hc        1 ZYD      0.043700
     55 H18        -4.5790    0.7310    4.1650 hc        1 ZYD      0.047700
     56 H18A       -3.0400    0.2260    4.9630 hc        1 ZYD      0.047700
     57 H19        -1.5890   -3.3560    0.9270 ha        1 ZYD      0.120000
     58 H19A       -1.5190   -2.8070   -0.8460 ha        1 ZYD      0.120000
     59 H20        -5.6040    0.9260    6.5500 hc        1 ZYD      0.038200
     60 H20A       -3.9300    0.6980    7.1870 hc        1 ZYD      0.038200
     61 H21        -3.1480    2.6540    5.7870 hc        1 ZYD      0.040700
     62 H21A       -4.8400    2.9020    5.2100 hc        1 ZYD      0.040700
     63 H22        -5.6030    3.2050    7.5960 hc        1 ZYD      0.037700
     64 H22A       -3.9030    2.9800    8.1630 hc        1 ZYD      0.037700
     65 H23        -4.9070    5.1960    6.2370 hc        1 ZYD      0.048700
     66 H23A       -3.1890    4.9500    6.7440 hc        1 ZYD      0.048700
     67 H24        -3.7790    5.3560    9.1140 hc        1 ZYD      0.047200
     68 H24A       -5.5460    5.3940    8.7020 hc        1 ZYD      0.047200
     69 H26        -2.2560    7.1190    8.1240 hc        1 ZYD      0.042033
     70 H26A       -2.9820    8.6540    7.4810 hc        1 ZYD      0.042033
     71 H26B       -2.9790    7.1590    6.4570 hc        1 ZYD      0.042033
     72 H27        -3.8900    7.6070   10.1320 hc        1 ZYD      0.042033
     73 H27A       -4.6500    8.9810    9.2220 hc        1 ZYD      0.042033
     74 H27B       -5.6760    7.6040    9.8000 hc        1 ZYD      0.042033
@<TRIPOS>BOND
     1    1    2 1   
     2    1    3 1   
     3    1   13 1   
     4    1   31 1   
     5    2   32 1   
     6    3    5 1   
     7    3   33 1   
     8    3   34 1   
     9    4    5 1   
    10    4   35 1   
    11    5    7 1   
    12    5   36 1   
    13    6   28 1   
    14    6   37 1   
    15    7    8 1   
    16    7   38 1   
    17    7   39 1   
    18    8    9 2   
    19    8   13 1   
    20    9   10 1   
    21    9   40 1   
    22   10   11 2   
    23   10   41 1   
    24   11   12 1   
    25   11   17 1   
    26   12   14 1   
    27   12   42 1   
    28   12   43 1   
    29   13   22 2   
    30   14   15 1   
    31   14   44 1   
    32   14   45 1   
    33   15   16 1   
    34   15   46 1   
    35   15   47 1   
    36   16   17 1   
    37   16   20 1   
    38   16   21 1   
    39   17   18 1   
    40   17   48 1   
    41   18   19 1   
    42   18   49 1   
    43   18   50 1   
    44   19   20 1   
    45   19   51 1   
    46   19   52 1   
    47   20   53 1   
    48   20   54 1   
    49   21   23 1   
    50   21   55 1   
    51   21   56 1   
    52   22   57 1   
    53   22   58 1   
    54   23   24 1   
    55   23   59 1   
    56   23   60 1   
    57   24   25 1   
    58   24   61 1   
    59   24   62 1   
    60   25   26 1   
    61   25   63 1   
    62   25   64 1   
    63   26   27 1   
    64   26   65 1   
    65   26   66 1   
    66   27   28 1   
    67   27   67 1   
    68   27   68 1   
    69   28   29 1   
    70   28   30 1   
    71   29   69 1   
    72   29   70 1   
    73   29   71 1   
    74   30   72 1   
    75   30   73 1   
    76   30   74 1   
@<TRIPOS>SUBSTRUCTURE
     1 ZYD         1 TEMP              0 ****  ****    0 ROOT
