@<TRIPOS>MOLECULE
molecule
   74    76     1     0     0
SMALL
bcc


@<TRIPOS>ATOM
      1 C1           0.0000     0.0000     0.0000 c3         1 ZYD       0.189300
      2 O1          -0.4810     1.1900     0.6300 oh         1 ZYD      -0.598800
      3 C2           1.5320     0.0000     0.0000 c3         1 ZYD      -0.099400
      4 O2           3.4720     0.1480     1.4300 oh         1 ZYD      -0.611800
      5 C3           2.0500     0.0000     1.4380 c3         1 ZYD       0.152100
      6 O3          -4.3680     7.4390     6.2700 oh         1 ZYD      -0.603800
      7 C4           1.6790    -1.3180     2.1250 c3         1 ZYD      -0.043200
      8 C5           0.1720    -1.4770     2.0710 ce         1 ZYD      -0.080200
      9 C6          -0.5390    -1.8400     3.1570 cf         1 ZYD      -0.120000
     10 C7          -1.9940    -1.9830     3.0650 cf         1 ZYD      -0.158000
     11 C8          -2.6980    -2.3420     4.1390 c2         1 ZYD      -0.096400
     12 C9          -2.0470    -2.6170     5.4860 c3         1 ZYD      -0.043200
     13 C10         -0.4780    -1.2150     0.7700 ce         1 ZYD      -0.088200
     14 C11         -2.7560    -1.8450     6.5960 c3         1 ZYD      -0.081400
     15 C12         -4.2820    -2.0210     6.5290 c3         1 ZYD      -0.063400
     16 C13         -4.7390    -1.5230     5.1770 c3         1 ZYD      -0.063000
     17 C14         -4.1890    -2.4980     4.1060 c3         1 ZYD      -0.033500
     18 C15         -4.9060    -1.9930     2.8520 c3         1 ZYD      -0.079400
     19 C16         -6.3470    -1.7210     3.3670 c3         1 ZYD      -0.082400
     20 C17         -6.2320    -1.4910     4.8870 c3         1 ZYD      -0.072400
     21 C18         -4.1580    -0.1290     4.9300 c3         1 ZYD      -0.078400
     22 C19         -1.4390    -2.0070     0.2970 c2         1 ZYD      -0.210000
     23 C20         -4.6310     0.8240     6.0300 c3         1 ZYD      -0.086400
     24 C21         -4.0510     2.2170     5.7810 c3         1 ZYD      -0.081400
     25 C22         -4.5230     3.1700     6.8810 c3         1 ZYD      -0.083400
     26 C23         -3.9430     4.5630     6.6330 c3         1 ZYD      -0.081400
     27 C24         -4.4150     5.5160     7.7330 c3         1 ZYD      -0.065400
     28 C25         -3.8350     6.9090     7.4850 c3         1 ZYD       0.147800
     29 C26         -2.3110     6.8150     7.3740 c3         1 ZYD      -0.120100
     30 C27         -4.2050     7.8310     8.6490 c3         1 ZYD      -0.120100
     31 H1          -0.3630    -0.0510    -1.0190 h1         1 ZYD       0.037700
     32 HO1         -0.9700     1.7000     0.0070 ho         1 ZYD       0.401000
     33 H2           1.8910    -0.8860    -0.5100 hc         1 ZYD       0.057200
     34 H2A          1.8910     0.8860    -0.5100 hc         1 ZYD       0.057200
     35 HO2          3.7080     0.9380     1.8870 ho         1 ZYD       0.401000
     36 H3           1.6010     0.8240     1.9800 h1         1 ZYD       0.053700
     37 HO3         -4.2320     8.3720     6.2470 ho         1 ZYD       0.401000
     38 H4           2.1510    -2.1440     1.6050 hc         1 ZYD       0.057700
     39 H4A          2.0060    -1.2950     3.1570 hc         1 ZYD       0.057700
     40 H6          -0.0350    -2.0270     4.0970 ha         1 ZYD       0.134000
     41 H7          -2.4980    -1.7970     2.1240 ha         1 ZYD       0.146000
     42 H9          -2.1040    -3.6770     5.6980 hc         1 ZYD       0.048700
     43 H9A         -1.0080    -2.3110     5.4480 hc         1 ZYD       0.048700
     44 H11         -2.4030    -2.2040     7.5550 hc         1 ZYD       0.044700
     45 H11A        -2.5190    -0.7920     6.5000 hc         1 ZYD       0.044700
     46 H12         -4.5350    -3.0690     6.6380 hc         1 ZYD       0.043700
     47 H12A        -4.7530    -1.4390     7.3120 hc         1 ZYD       0.043700
     48 H14         -4.4770    -3.5180     4.3320 hc         1 ZYD       0.066700
     49 H15         -4.4490    -1.0790     2.4930 hc         1 ZYD       0.048200
     50 H15A        -4.9130    -2.7560     2.0820 hc         1 ZYD       0.048200
     51 H16         -6.9790    -2.5780     3.1690 hc         1 ZYD       0.041200
     52 H16A        -6.7500    -0.8370     2.8880 hc         1 ZYD       0.041200
     53 H17         -6.7360    -2.2840     5.4250 hc         1 ZYD       0.046200
     54 H17A        -6.6450    -0.5250     5.1520 hc         1 ZYD       0.046200
     55 H18         -3.0760    -0.1820     4.9390 hc         1 ZYD       0.052700
     56 H18A        -4.4940     0.2360     3.9670 hc         1 ZYD       0.052700
     57 H19         -1.8990    -1.7900    -0.6600 ha         1 ZYD       0.121500
     58 H19A        -1.7610    -2.8690     0.8690 ha         1 ZYD       0.121500
     59 H20         -5.7130     0.8770     6.0210 hc         1 ZYD       0.041200
     60 H20A        -4.2950     0.4590     6.9930 hc         1 ZYD       0.041200
     61 H21         -4.3870     2.5820     4.8180 hc         1 ZYD       0.042700
     62 H21A        -2.9690     2.1650     5.7890 hc         1 ZYD       0.042700
     63 H22         -5.6050     3.2230     6.8730 hc         1 ZYD       0.038200
     64 H22A        -4.1870     2.8050     7.8440 hc         1 ZYD       0.038200
     65 H23         -2.8610     4.5110     6.6410 hc         1 ZYD       0.050200
     66 H23A        -4.2790     4.9280     5.6700 hc         1 ZYD       0.050200
     67 H24         -4.0790     5.1510     8.6960 hc         1 ZYD       0.048700
     68 H24A        -5.4970     5.5690     7.7250 hc         1 ZYD       0.048700
     69 H26         -1.8750     7.7880     7.5660 hc         1 ZYD       0.041533
     70 H26A        -2.0410     6.4890     6.3770 hc         1 ZYD       0.041533
     71 H26B        -1.9400     6.1030     8.1000 hc         1 ZYD       0.041533
     72 H27         -5.2830     7.9090     8.7200 hc         1 ZYD       0.041533
     73 H27A        -3.8110     7.4230     9.5720 hc         1 ZYD       0.041533
     74 H27B        -3.7820     8.8140     8.4800 hc         1 ZYD       0.041533
@<TRIPOS>BOND
     1     1     2 1
     2     1     3 1
     3     1    13 1
     4     3     5 1
     5     4     5 1
     6     5     7 1
     7     6    28 1
     8     7     8 1
     9     8     9 2
    10     8    13 1
    11     9    10 1
    12    10    11 2
    13    11    12 1
    14    11    17 1
    15    12    14 1
    16    13    22 2
    17    14    15 1
    18    15    16 1
    19    16    17 1
    20    16    20 1
    21    16    21 1
    22    17    18 1
    23    18    19 1
    24    19    20 1
    25    21    23 1
    26    23    24 1
    27    24    25 1
    28    25    26 1
    29    26    27 1
    30    27    28 1
    31    28    29 1
    32    28    30 1
    33     1    31 1
    34     2    32 1
    35     3    33 1
    36     3    34 1
    37     4    35 1
    38     5    36 1
    39     6    37 1
    40     7    38 1
    41     7    39 1
    42     9    40 1
    43    10    41 1
    44    12    42 1
    45    12    43 1
    46    14    44 1
    47    14    45 1
    48    15    46 1
    49    15    47 1
    50    17    48 1
    51    18    49 1
    52    18    50 1
    53    19    51 1
    54    19    52 1
    55    20    53 1
    56    20    54 1
    57    21    55 1
    58    21    56 1
    59    22    57 1
    60    22    58 1
    61    23    59 1
    62    23    60 1
    63    24    61 1
    64    24    62 1
    65    25    63 1
    66    25    64 1
    67    26    65 1
    68    26    66 1
    69    27    67 1
    70    27    68 1
    71    29    69 1
    72    29    70 1
    73    29    71 1
    74    30    72 1
    75    30    73 1
    76    30    74 1
@<TRIPOS>SUBSTRUCTURE
     1 ZYD         1 TEMP              0 ****  ****    0 ROOT
