@<TRIPOS>MOLECULE
ZYE
   79    83     1     0     0
SMALL
bcc


@<TRIPOS>ATOM
      1 C1           0.0000     0.0000     0.0000 ca         1 ZYE      -0.213200
      2 C2           1.3880     0.0000     0.0000 ca         1 ZYE      -0.076000
      3 C3           2.0830     0.0000     1.2070 ca         1 ZYE      -0.135600
      4 C4           1.3890     0.0000     2.4260 ca         1 ZYE      -0.054000
      5 C5           0.0100    -0.0010     2.4370 ca         1 ZYE      -0.025400
      6 C6          -0.6960    -0.0010     1.2230 ca         1 ZYE      -0.073800
      7 C7           3.5590     0.0000     1.2040 c          1 ZYE       0.595700
      8 N8           4.2300     0.0000     0.0350 ns         1 ZYE      -0.196900
      9 O9           4.1690    -0.0000     2.2550 o          1 ZYE      -0.635100
     10 C10          5.6940     0.0010     0.0310 c3         1 ZYE       0.011700
     11 C11          6.2050    -1.4370     0.1560 c3         1 ZYE       0.011900
     12 C12          6.2020     0.6100    -1.2770 c3         1 ZYE       0.180100
     13 O13          5.8200    -0.2270    -2.3720 oh         1 ZYE      -0.576800
     14 C14          5.8100    -1.9960     1.4980 ca         1 ZYE      -0.076300
     15 C15          7.7260     0.7250    -1.2290 c3         1 ZYE       0.113800
     16 N16          8.2030     1.4190    -2.4330 n7         1 ZYE      -0.577200
     17 C17          9.6670     1.5470    -2.4220 c3         1 ZYE       0.203100
     18 C18          4.6040    -2.6560     1.6440 ca         1 ZYE      -0.092000
     19 C19          4.2410    -3.1690     2.8760 ca         1 ZYE      -0.092000
     20 C20          5.0840    -3.0210     3.9610 ca         1 ZYE      -0.101000
     21 C21          6.2900    -2.3620     3.8150 ca         1 ZYE      -0.092000
     22 C22          6.6550    -1.8530     2.5830 ca         1 ZYE      -0.092000
     23 N23         -0.9440    -0.0060    -1.0040 na         1 ZYE       0.393600
     24 C24         -2.1650    -0.7530     5.3810 c3         1 ZYE      -0.032400
     25 C25         -1.7910     0.7340     5.5810 c3         1 ZYE      -0.113400
     26 C26         -1.0580     1.1070     4.3120 c          1 ZYE       0.625500
     27 N27         -0.6820    -0.0020     3.6520 n          1 ZYE      -0.040000
     28 C28         -1.0900    -1.2150     4.3720 c3         1 ZYE       0.044000
     29 C30         -2.1980    -0.0040    -0.4620 cc         1 ZYE      -0.238100
     30 C31         -2.1180    -0.0020     0.8800 cd         1 ZYE      -0.164200
     31 C33         -0.6470    -0.0130    -2.4380 c3         1 ZYE      -0.040700
     32 C34         10.8360     2.1990    -5.9550 ca         1 ZYE       0.150100
     33 C35         10.9460     3.5830    -5.9580 ca         1 ZYE      -0.210000
     34 C36         10.6410     4.3000    -4.8170 ca         1 ZYE      -0.056000
     35 C37         10.2270     3.6410    -3.6740 ca         1 ZYE      -0.143000
     36 C38         10.1170     2.2630    -3.6690 ca         1 ZYE      -0.059300
     37 C39         10.4210     1.5400    -4.8080 ca         1 ZYE      -0.119000
     38 C41         11.5450     2.2370    -8.2250 c3         1 ZYE       0.244700
     39 H2           1.9300    -0.0000    -0.9380 ha         1 ZYE       0.100000
     40 H4           1.9370     0.0000     3.3600 ha         1 ZYE       0.136000
     41 H31         -2.9490     0.0010     1.5760 ha         1 ZYE       0.132000
     42 H8           3.7270     0.0430    -0.8290 hn         1 ZYE       0.179500
     43 H10          6.0570     0.5860     0.8670 h1         1 ZYE       0.063700
     44 H111         5.7720    -2.0430    -0.6300 hc         1 ZYE       0.032700
     45 H112         7.2850    -1.4450     0.0650 hc         1 ZYE       0.032700
     46 H12          5.7700     1.5950    -1.4080 h1         1 ZYE       0.002700
     47 H13          5.4460     0.3020    -3.0560 ho         1 ZYE       0.392000
     48 H151         8.0190     1.2850    -0.3500 h1         1 ZYE       0.023200
     49 H152         8.1620    -0.2660    -1.1870 h1         1 ZYE       0.023200
     50 H18          3.9440    -2.7720     0.7930 ha         1 ZYE       0.099000
     51 H22          7.6000    -1.3360     2.4680 ha         1 ZYE       0.099000
     52 H16          7.7880     2.3290    -2.4800 hn         1 ZYE       0.249800
     53 H171        10.1150     0.5620    -2.3890 h1         1 ZYE       0.012200
     54 H172         9.9730     2.1130    -1.5500 h1         1 ZYE       0.012200
     55 H19          3.2960    -3.6860     2.9900 ha         1 ZYE       0.096500
     56 H20          4.7990    -3.4210     4.9270 ha         1 ZYE       0.097000
     57 H21          6.9520    -2.2470     4.6650 ha         1 ZYE       0.096500
     58 H30         -3.1210    -0.0040    -1.0290 h4         1 ZYE       0.141000
     59 H331        -1.4810     0.4150    -2.9810 h1         1 ZYE       0.030700
     60 H332         0.2450     0.5730    -2.6250 h1         1 ZYE       0.030700
     61 H251        -1.1410     0.8470     6.4400 hc         1 ZYE       0.042200
     62 H252        -2.6850     1.3370     5.6920 hc         1 ZYE       0.042200
     63 H321         0.0420    -2.0220    -2.1080 hc         1 ZYE       0.014367
     64 H322         0.2300    -1.4510    -3.7720 hc         1 ZYE       0.014367
     65 H323        -1.3700    -1.9010    -3.1660 hc         1 ZYE       0.014367
     66 H35         11.2700     4.1000    -6.8530 ha         1 ZYE       0.120000
     67 H39         10.3350     0.4600    -4.8040 ha         1 ZYE       0.123000
     68 H36         10.7260     5.3790    -4.8190 ha         1 ZYE       0.100000
     69 H37          9.9890     4.2060    -2.7810 ha         1 ZYE       0.105000
     70 H411        11.7440     1.5570    -9.0440 h1         1 ZYE      -0.002967
     71 H412        10.7610     2.9270    -8.5110 h1         1 ZYE      -0.002967
     72 H413        12.4460     2.7900    -7.9880 h1         1 ZYE      -0.002967
     73 H241        -2.0800    -1.3010     6.3120 hc         1 ZYE       0.025200
     74 H242        -3.1570    -0.8470     4.9560 hc         1 ZYE       0.025200
     75 H281        -0.2430    -1.6400     4.8970 h1         1 ZYE       0.019700
     76 H282        -1.5110    -1.9350     3.6810 h1         1 ZYE       0.019700
     77 O29         -0.8410     2.2420     3.9420 o          1 ZYE      -0.660500
     78 O40         11.1290     1.4910    -7.0770 os         1 ZYE      -0.307900
     79 C32         -0.4200    -1.4520    -2.9050 c3         1 ZYE      -0.018100
@<TRIPOS>BOND
     1     1     2 ar  
     2     1     6 ar  
     3     1    23 1   
     4     2     3 ar  
     5     2    39 1   
     6     3     4 ar  
     7     3     7 1   
     8     4     5 ar  
     9     4    40 1   
    10     5     6 ar  
    11     5    27 1   
    12     6    30 1   
    13     7     8 1   
    14     7     9 2   
    15     8    10 1   
    16     8    42 1   
    17    10    11 1   
    18    10    12 1   
    19    10    43 1   
    20    11    14 1   
    21    11    44 1   
    22    11    45 1   
    23    12    13 1   
    24    12    15 1   
    25    12    46 1   
    26    13    47 1   
    27    14    18 ar  
    28    14    22 ar  
    29    15    16 1   
    30    15    48 1   
    31    15    49 1   
    32    16    17 1   
    33    16    52 1   
    34    17    36 1   
    35    17    53 1   
    36    17    54 1   
    37    18    19 ar  
    38    18    50 1   
    39    19    20 ar  
    40    19    55 1   
    41    20    21 ar  
    42    20    56 1   
    43    21    22 ar  
    44    21    57 1   
    45    22    51 1   
    46    23    29 1   
    47    23    31 1   
    48    24    25 1   
    49    24    28 1   
    50    24    73 1   
    51    24    74 1   
    52    25    26 1   
    53    25    61 1   
    54    25    62 1   
    55    26    27 1   
    56    26    77 2   
    57    27    28 1   
    58    28    75 1   
    59    28    76 1   
    60    29    30 2   
    61    29    58 1   
    62    30    41 1   
    63    31    59 1   
    64    31    60 1   
    65    31    79 1   
    66    32    33 ar  
    67    32    37 ar  
    68    32    78 1   
    69    33    34 ar  
    70    33    66 1   
    71    34    35 ar  
    72    34    68 1   
    73    35    36 ar  
    74    35    69 1   
    75    36    37 ar  
    76    37    67 1   
    77    38    70 1   
    78    38    71 1   
    79    38    72 1   
    80    38    78 1   
    81    63    79 1   
    82    64    79 1   
    83    65    79 1   
@<TRIPOS>SUBSTRUCTURE
     1 ZYE         1 TEMP              0 ****  ****    0 ROOT
