@<TRIPOS>MOLECULE
molecule
   79    83     1     0     0
SMALL
bcc


@<TRIPOS>ATOM
      1 C1           0.0000     0.0000     0.0000 ca         1 ZYE      -0.043200
      2 C2           1.3880     0.0000     0.0000 ca         1 ZYE      -0.115000
      3 C3           2.0830     0.0000     1.2070 ca         1 ZYE      -0.123600
      4 C4           1.3890     0.0000     2.4260 ca         1 ZYE      -0.091000
      5 C5           0.0100    -0.0010     2.4370 ca         1 ZYE       0.095600
      6 C6          -0.6960    -0.0010     1.2230 ca         1 ZYE      -0.078800
      7 C7           3.5590     0.0000     1.2040 c          1 ZYE       0.674700
      8 N8           4.2300     0.0000     0.0350 ns         1 ZYE      -0.581900
      9 O9           4.1690    -0.0000     2.2550 o          1 ZYE      -0.593100
     10 C10          5.6940     0.0010     0.0310 c3         1 ZYE       0.119700
     11 C11          6.2050    -1.4370     0.1560 c3         1 ZYE      -0.045100
     12 C12          6.2020     0.6100    -1.2770 c3         1 ZYE       0.134100
     13 O13          5.8200    -0.2270    -2.3720 oh         1 ZYE      -0.594800
     14 C14          5.8100    -1.9960     1.4980 ca         1 ZYE      -0.069300
     15 C15          7.7260     0.7250    -1.2290 c3         1 ZYE       0.137800
     16 N16          8.2030     1.4190    -2.4330 n7         1 ZYE      -0.811200
     17 C17          9.6670     1.5470    -2.4220 c3         1 ZYE       0.206100
     18 C18          4.6040    -2.6560     1.6440 ca         1 ZYE      -0.116500
     19 C19          4.2410    -3.1690     2.8760 ca         1 ZYE      -0.120000
     20 C20          5.0840    -3.0210     3.9610 ca         1 ZYE      -0.128000
     21 C21          6.2900    -2.3620     3.8150 ca         1 ZYE      -0.120000
     22 C22          6.6550    -1.8530     2.5830 ca         1 ZYE      -0.116500
     23 N23         -0.9440    -0.0060    -1.0040 na         1 ZYE      -0.072400
     24 C24         -2.1650    -0.7530     5.3810 c3         1 ZYE      -0.099400
     25 C25         -1.7910     0.7340     5.5810 c3         1 ZYE      -0.169400
     26 C26         -1.0580     1.1070     4.3120 c          1 ZYE       0.706500
     27 N27         -0.6820    -0.0020     3.6520 n          1 ZYE      -0.409000
     28 C28         -1.0900    -1.2150     4.3720 c3         1 ZYE       0.102000
     29 C30         -2.1980    -0.0040    -0.4620 cc         1 ZYE      -0.089100
     30 C31         -2.1180    -0.0020     0.8800 cd         1 ZYE      -0.197200
     31 C33         -0.6470    -0.0130    -2.4380 c3         1 ZYE       0.047300
     32 C34         10.8360     2.1990    -5.9550 ca         1 ZYE       0.139100
     33 C35         10.9460     3.5830    -5.9580 ca         1 ZYE      -0.219000
     34 C36         10.6410     4.3000    -4.8170 ca         1 ZYE      -0.090000
     35 C37         10.2270     3.6410    -3.6740 ca         1 ZYE      -0.166000
     36 C38         10.1170     2.2630    -3.6690 ca         1 ZYE      -0.053300
     37 C39         10.4210     1.5400    -4.8080 ca         1 ZYE      -0.135000
     38 C41         11.5450     2.2370    -8.2250 c3         1 ZYE       0.129700
     39 H2           1.9300    -0.0000    -0.9380 ha         1 ZYE       0.121000
     40 H4           1.9370     0.0000     3.3600 ha         1 ZYE       0.166000
     41 H31         -2.9490     0.0010     1.5760 ha         1 ZYE       0.159000
     42 H8           3.7270     0.0430    -0.8290 hn         1 ZYE       0.314500
     43 H10          6.0570     0.5860     0.8670 h1         1 ZYE       0.085700
     44 H111         5.7720    -2.0430    -0.6300 hc         1 ZYE       0.060700
     45 H112         7.2850    -1.4450     0.0650 hc         1 ZYE       0.060700
     46 H12          5.7700     1.5950    -1.4080 h1         1 ZYE       0.036700
     47 H13          5.4460     0.3020    -3.0560 ho         1 ZYE       0.405000
     48 H151         8.0190     1.2850    -0.3500 h1         1 ZYE       0.046700
     49 H152         8.1620    -0.2660    -1.1870 h1         1 ZYE       0.046700
     50 H18          3.9440    -2.7720     0.7930 ha         1 ZYE       0.123000
     51 H22          7.6000    -1.3360     2.4680 ha         1 ZYE       0.123000
     52 H16          7.7880     2.3290    -2.4800 hn         1 ZYE       0.350800
     53 H171        10.1150     0.5620    -2.3890 h1         1 ZYE       0.041700
     54 H172         9.9730     2.1130    -1.5500 h1         1 ZYE       0.041700
     55 H19          3.2960    -3.6860     2.9900 ha         1 ZYE       0.123000
     56 H20          4.7990    -3.4210     4.9270 ha         1 ZYE       0.122000
     57 H21          6.9520    -2.2470     4.6650 ha         1 ZYE       0.123000
     58 H30         -3.1210    -0.0040    -1.0290 h4         1 ZYE       0.167000
     59 H331        -1.4810     0.4150    -2.9810 h1         1 ZYE       0.058200
     60 H332         0.2450     0.5730    -2.6250 h1         1 ZYE       0.058200
     61 H251        -1.1410     0.8470     6.4400 hc         1 ZYE       0.077200
     62 H252        -2.6850     1.3370     5.6920 hc         1 ZYE       0.077200
     63 H321         0.0420    -2.0220    -2.1080 hc         1 ZYE       0.048367
     64 H322         0.2300    -1.4510    -3.7720 hc         1 ZYE       0.048367
     65 H323        -1.3700    -1.9010    -3.1660 hc         1 ZYE       0.048367
     66 H35         11.2700     4.1000    -6.8530 ha         1 ZYE       0.134000
     67 H39         10.3350     0.4600    -4.8040 ha         1 ZYE       0.151000
     68 H36         10.7260     5.3790    -4.8190 ha         1 ZYE       0.130000
     69 H37          9.9890     4.2060    -2.7810 ha         1 ZYE       0.127000
     70 H411        11.7440     1.5570    -9.0440 h1         1 ZYE       0.041367
     71 H412        10.7610     2.9270    -8.5110 h1         1 ZYE       0.041367
     72 H413        12.4460     2.7900    -7.9880 h1         1 ZYE       0.041367
     73 H241        -2.0800    -1.3010     6.3120 hc         1 ZYE       0.058200
     74 H242        -3.1570    -0.8470     4.9560 hc         1 ZYE       0.058200
     75 H281        -0.2430    -1.6400     4.8970 h1         1 ZYE       0.050700
     76 H282        -1.5110    -1.9350     3.6810 h1         1 ZYE       0.050700
     77 O29         -0.8410     2.2420     3.9420 o          1 ZYE      -0.614500
     78 O40         11.1290     1.4910    -7.0770 os         1 ZYE      -0.328900
     79 C32         -0.4200    -1.4520    -2.9050 c3         1 ZYE      -0.119100
@<TRIPOS>BOND
     1     1     2 ar
     2     1     6 ar
     3     1    23 1
     4     2     3 ar
     5     3     4 ar
     6     3     7 1
     7     4     5 ar
     8     5     6 ar
     9     5    27 1
    10     6    30 1
    11     7     8 1
    12     7     9 2
    13     8    10 1
    14    10    11 1
    15    10    12 1
    16    11    14 1
    17    12    13 1
    18    12    15 1
    19    14    18 ar
    20    14    22 ar
    21    15    16 1
    22    16    17 1
    23    17    36 1
    24    18    19 ar
    25    19    20 ar
    26    20    21 ar
    27    21    22 ar
    28    23    29 1
    29    23    31 1
    30    24    25 1
    31    24    28 1
    32    25    26 1
    33    26    27 1
    34    26    77 2
    35    27    28 1
    36    29    30 2
    37    79    31 1
    38    32    33 ar
    39    32    37 ar
    40    32    78 1
    41    33    34 ar
    42    34    35 ar
    43    35    36 ar
    44    36    37 ar
    45    78    38 1
    46     2    39 1
    47     4    40 1
    48    30    41 1
    49     8    42 1
    50    10    43 1
    51    11    44 1
    52    11    45 1
    53    12    46 1
    54    13    47 1
    55    15    48 1
    56    15    49 1
    57    18    50 1
    58    22    51 1
    59    16    52 1
    60    17    53 1
    61    17    54 1
    62    19    55 1
    63    20    56 1
    64    21    57 1
    65    29    58 1
    66    31    59 1
    67    31    60 1
    68    25    61 1
    69    25    62 1
    70    79    63 1
    71    79    64 1
    72    79    65 1
    73    33    66 1
    74    37    67 1
    75    34    68 1
    76    35    69 1
    77    38    70 1
    78    38    71 1
    79    38    72 1
    80    24    73 1
    81    24    74 1
    82    28    75 1
    83    28    76 1
@<TRIPOS>SUBSTRUCTURE
     1 ZYE         1 TEMP              0 ****  ****    0 ROOT
