@<TRIPOS>MOLECULE
ZYH
   63    68     1     0     0
SMALL
bcc


@<TRIPOS>ATOM
      1 O01         0.2110    0.3610   -0.0820 o         1 ZYH     -0.582100
      2 C02         1.4500    0.2250   -0.0510 c         1 ZYH      0.651700
      3 C03         2.1720    0.0260    1.2390 ca        1 ZYH     -0.126600
      4 C04         1.5130   -0.7130    2.2400 ca        1 ZYH     -0.101000
      5 C05         2.0870   -0.9480    3.4870 ca        1 ZYH     -0.081000
      6 C06         3.3540   -0.4130    3.7310 ca        1 ZYH      0.080400
      7 N07         4.2090   -0.4500    4.8570 nc        1 ZYH     -0.560100
      8 C08         5.2850    0.2460    4.5120 cd        1 ZYH      0.556600
      9 O09         5.2340    0.7750    3.1880 os        1 ZYH     -0.312700
     10 C10         4.0010    0.3500    2.6970 ca        1 ZYH      0.015100
     11 C11         3.4380    0.5830    1.4520 ca        1 ZYH     -0.076000
     12 C12         6.5320    0.5740    5.2590 c3        1 ZYH     -0.074000
     13 C13         6.2030    1.4040    6.4950 c3        1 ZYH     -0.074400
     14 C14         7.4670    1.7270    7.2660 c3        1 ZYH     -0.077400
     15 C15         8.2230    0.4690    7.6410 c3        1 ZYH     -0.080400
     16 C16         8.5280   -0.3740    6.4200 c3        1 ZYH     -0.077400
     17 C17         7.2680   -0.7040    5.6470 c3        1 ZYH     -0.074400
     18 N18         2.1960    0.3330   -1.2230 n         1 ZYH     -0.432800
     19 C19         1.5930    0.1600   -2.5530 cy        1 ZYH      0.066500
     20 C20         2.8180   -0.7290   -2.9780 cy        1 ZYH      0.137500
     21 C21         3.3840   -0.4720   -1.5320 cy        1 ZYH      0.066500
     22 N22         3.6230   -0.2360   -4.0740 n3        1 ZYH     -0.718600
     23 C23         4.8760   -0.9660   -4.2120 c3        1 ZYH      0.159800
     24 C24         5.7580   -0.4270   -5.3560 c3        1 ZYH      0.199800
     25 N25         5.0390   -0.2830   -6.6130 nh        1 ZYH     -0.724300
     26 C26         3.7320    0.3470   -6.5000 c3        1 ZYH      0.199800
     27 C27         2.8910   -0.2060   -5.3320 c3        1 ZYH      0.159800
     28 C28         5.8100    0.0390   -7.7600 ca        1 ZYH      0.863900
     29 N29         7.1760   -0.2340   -7.7330 nb        1 ZYH     -0.745000
     30 C30         7.8530   -0.0340   -8.8730 ca        1 ZYH      0.461700
     31 C31         7.2600    0.4410  -10.0550 ca        1 ZYH     -0.417600
     32 C32         5.8830    0.7150   -9.9860 ca        1 ZYH      0.461700
     33 N33         5.1470    0.5370   -8.8800 nb        1 ZYH     -0.745000
     34 H041        0.5030   -1.1010    2.0240 ha        1 ZYH      0.159000
     35 H051        1.5580   -1.5280    4.2570 ha        1 ZYH      0.158000
     36 H111        3.9560    1.1820    0.6900 ha        1 ZYH      0.165000
     37 H121        7.1920    1.1830    4.5750 hc        1 ZYH      0.079700
     38 H131        5.4950    0.8340    7.1510 hc        1 ZYH      0.056200
     39 H132        5.6950    2.3530    6.1850 hc        1 ZYH      0.056200
     40 H141        8.1260    2.3900    6.6460 hc        1 ZYH      0.043700
     41 H142        7.1970    2.2950    8.1940 hc        1 ZYH      0.043700
     42 H151        7.6120   -0.1310    8.3660 hc        1 ZYH      0.043700
     43 H152        9.1800    0.7460    8.1550 hc        1 ZYH      0.043700
     44 H161        9.0270   -1.3270    6.7370 hc        1 ZYH      0.043700
     45 H162        9.2440    0.1760    5.7550 hc        1 ZYH      0.043700
     46 H171        6.5960   -1.3470    6.2740 hc        1 ZYH      0.056200
     47 H172        7.5300   -1.2810    4.7230 hc        1 ZYH      0.056200
     48 H191        0.6150   -0.3790   -2.5520 h1        1 ZYH      0.070450
     49 H192        1.4970    1.1390   -3.0810 h1        1 ZYH      0.070450
     50 H201        2.5200   -1.8040   -3.1180 h1        1 ZYH      0.042700
     51 H211        3.5020   -1.3990   -0.9230 h1        1 ZYH      0.070450
     52 H212        4.3150    0.1430   -1.4840 h1        1 ZYH      0.070450
     53 H231        5.4570   -0.8460   -3.2550 h1        1 ZYH      0.042950
     54 H232        4.7000   -2.0690   -4.3780 h1        1 ZYH      0.042950
     55 H241        6.2040    0.5590   -5.0410 h1        1 ZYH      0.062200
     56 H242        6.5950   -1.1690   -5.4920 h1        1 ZYH      0.062200
     57 H261        3.1440    0.1500   -7.4400 h1        1 ZYH      0.062200
     58 H262        3.8420    1.4630   -6.3750 h1        1 ZYH      0.062200
     59 H271        2.5070   -1.2300   -5.6150 h1        1 ZYH      0.042950
     60 H272        2.0030    0.4740   -5.2050 h1        1 ZYH      0.042950
     61 H301        8.9340   -0.2640   -8.8260 h4        1 ZYH      0.025600
     62 H311        7.8360    0.5950  -10.9720 ha        1 ZYH      0.155000
     63 H321        5.3310    1.1050  -10.8620 h4        1 ZYH      0.025600
@<TRIPOS>BOND
     1    1    2 2
     2    2    3 1
     3    2   18 1
     4    3    4 ar
     5    3   11 ar
     6    4    5 ar
     7    4   34 1
     8    5    6 ar
     9    5   35 1
    10    6    7 1
    11    6   10 ar
    12    7    8 2
    13    8    9 1
    14    8   12 1
    15    9   10 1
    16   10   11 ar
    17   11   36 1
    18   12   13 1
    19   12   17 1
    20   12   37 1
    21   13   14 1
    22   13   38 1
    23   13   39 1
    24   14   15 1
    25   14   40 1
    26   14   41 1
    27   15   16 1
    28   15   42 1
    29   15   43 1
    30   16   17 1
    31   16   44 1
    32   16   45 1
    33   17   46 1
    34   17   47 1
    35   18   19 1
    36   18   21 1
    37   19   20 1
    38   19   48 1
    39   19   49 1
    40   20   21 1
    41   20   22 1
    42   20   50 1
    43   21   51 1
    44   21   52 1
    45   22   23 1
    46   22   27 1
    47   23   24 1
    48   23   53 1
    49   23   54 1
    50   24   25 1
    51   24   55 1
    52   24   56 1
    53   25   26 1
    54   25   28 1
    55   26   27 1
    56   26   57 1
    57   26   58 1
    58   27   59 1
    59   27   60 1
    60   28   29 ar
    61   28   33 ar
    62   29   30 ar
    63   30   31 ar
    64   30   61 1
    65   31   32 ar
    66   31   62 1
    67   32   33 ar
    68   32   63 1
@<TRIPOS>SUBSTRUCTURE
     1 ZYH         1 TEMP              0 ****  ****    0 ROOT
