@<TRIPOS>MOLECULE
ZYI
   35    37     1     0     0
SMALL
bcc


@<TRIPOS>ATOM
      1 N1          1.6440   -0.0050    0.3210 nc        1 ZYI     -0.452100
      2 C2          2.6400    0.0850    1.2090 cd        1 ZYI      0.523500
      3 O3          2.2430    0.0500    2.5790 os        1 ZYI     -0.280700
      4 C4          0.8520   -0.0780    2.4990 ca        1 ZYI      0.065100
      5 C5         -0.0640   -0.1620    3.5380 ca        1 ZYI     -0.097000
      6 C6         -1.4010   -0.2850    3.1640 ca        1 ZYI     -0.060000
      7 C7         -1.7910   -0.3220    1.8070 ca        1 ZYI      0.007400
      8 CL8        -3.4360   -0.4730    1.4400 cl        1 ZYI     -0.024400
      9 C9         -0.8710   -0.2380    0.7590 ca        1 ZYI     -0.035000
     10 C10         0.4800   -0.1130    1.1090 ca        1 ZYI      0.039400
     11 N11         4.0630    0.2240    0.9950 n4        1 ZYI     -0.612800
     12 C12         4.3710    1.3000   -0.0750 c         1 ZYI      0.581100
     13 C13         4.3900    0.8110   -1.4900 c3        1 ZYI     -0.148400
     14 C14         5.6910    0.0990   -1.8200 c3        1 ZYI     -0.083700
     15 C15         5.8670   -0.0010   -3.3400 c3        1 ZYI     -0.084900
     16 C16         6.6010   -1.3080   -3.6060 c3        1 ZYI     -0.078900
     17 C17         6.5420   -2.1380   -2.3310 c3        1 ZYI     -0.078900
     18 C18         5.7620   -1.3350   -1.2960 c3        1 ZYI     -0.084900
     19 O19         4.5880    2.4020    0.3840 o         1 ZYI     -0.380100
     20 H5          0.2450   -0.1320    4.5930 ha        1 ZYI      0.183000
     21 H6         -2.1740   -0.3540    3.9500 ha        1 ZYI      0.182000
     22 H9         -1.1880   -0.2670   -0.2950 ha        1 ZYI      0.187000
     23 HN11        4.4410   -0.6850    0.6850 hn        1 ZYI      0.483300
     24 H13         3.5060    0.1490   -1.7010 hc        1 ZYI      0.125700
     25 H13A        4.2910    1.7300   -2.1410 hc        1 ZYI      0.125700
     26 H14         6.5520    0.6890   -1.4000 hc        1 ZYI      0.072700
     27 H15         4.8700   -0.0050   -3.8500 hc        1 ZYI      0.046950
     28 H15A        6.4420    0.8760   -3.7260 hc        1 ZYI      0.046950
     29 H16         6.1280   -1.8550   -4.4600 hc        1 ZYI      0.063950
     30 H16A        7.6650   -1.1070   -3.8900 hc        1 ZYI      0.063950
     31 H17         7.5750   -2.3530   -1.9560 hc        1 ZYI      0.063950
     32 H17A        6.0450   -3.1230   -2.5160 hc        1 ZYI      0.063950
     33 H18         6.2730   -1.3770   -0.3020 hc        1 ZYI      0.046950
     34 H18A        4.7340   -1.7680   -1.1840 hc        1 ZYI      0.046950
     35 H112        4.4910    0.4910    1.8960 hn        1 ZYI      0.483300
@<TRIPOS>BOND
     1    1    2 2   
     2    1   10 1   
     3    2    3 1   
     4    2   11 1   
     5    3    4 1   
     6    4    5 ar  
     7    4   10 ar  
     8    5    6 ar  
     9    5   20 1   
    10    6    7 ar  
    11    6   21 1   
    12    7    8 1   
    13    7    9 ar  
    14    9   10 ar  
    15    9   22 1   
    16   11   12 1   
    17   11   23 1   
    18   11   35 1   
    19   12   13 1   
    20   12   19 2   
    21   13   14 1   
    22   13   24 1   
    23   13   25 1   
    24   14   15 1   
    25   14   18 1   
    26   14   26 1   
    27   15   16 1   
    28   15   27 1   
    29   15   28 1   
    30   16   17 1   
    31   16   29 1   
    32   16   30 1   
    33   17   18 1   
    34   17   31 1   
    35   17   32 1   
    36   18   33 1   
    37   18   34 1   
@<TRIPOS>SUBSTRUCTURE
     1 ZYI         1 TEMP              0 ****  ****    0 ROOT
