@<TRIPOS>MOLECULE
ZYL
   47    48     1     0     0
SMALL
bcc


@<TRIPOS>ATOM
      1 CAA          0.0000     0.0000     0.0000 c3         1 ZYL       0.005900
      2 OAB          7.0800     3.6110     9.7580 o          1 ZYL      -0.868300
      3 OAD          8.3730     5.4160     9.8400 o          1 ZYL      -0.868300
      4 OAE         10.6860     5.5300     8.8350 oh         1 ZYL      -0.431100
      5 CAF          9.6490    -0.0010     3.4950 ca         1 ZYL      -0.072000
      6 CAG         10.1760     0.0050     4.7730 ca         1 ZYL      -0.140000
      7 CAH          8.2800    -0.0000     3.3110 ca         1 ZYL      -0.216000
      8 CAI         11.4940     3.5600     7.7400 cc         1 ZYL      -0.264000
      9 CAJ         11.2920     2.2760     7.3640 cd         1 ZYL      -0.132400
     10 CAK          7.9650     0.0120     5.6920 ca         1 ZYL      -0.096000
     11 CAL          1.5310     0.0000     0.0000 c3         1 ZYL      -0.028400
     12 CAM          2.0400     0.0000     1.4420 c3         1 ZYL      -0.029400
     13 CAN          3.5700    -0.0000     1.4430 c3         1 ZYL      -0.024400
     14 CAO          4.0800     0.0010     2.8850 c3         1 ZYL      -0.036400
     15 CAP          5.6100    -0.0000     2.8860 c3         1 ZYL       0.202400
     16 OAR          6.0870     0.0010     4.2330 os         1 ZYL      -0.294900
     17 CAS          8.2270     4.2630     9.4790 c          1 ZYL       0.979800
     18 CAT          9.3350     0.0110     5.8710 ca         1 ZYL      -0.077300
     19 CAU          7.4340     0.0000     4.4110 ca         1 ZYL       0.149100
     20 CAV         10.4960     4.2490     8.4460 cc         1 ZYL       0.153100
     21 CAW          9.2960     3.5830     8.7430 cd         1 ZYL      -0.227400
     22 CAX          9.1390     2.2420     8.3180 c          1 ZYL       0.602700
     23 NAY         10.1340     1.6300     7.6490 n          1 ZYL       0.009000
     24 H1          -0.3610     0.8810     0.5170 hc         1 ZYL      -0.000967
     25 H2          -0.3610    -0.8880     0.5050 hc         1 ZYL      -0.000967
     26 H3          -0.3610     0.0070    -1.0210 hc         1 ZYL      -0.000967
     27 H5          11.4890     5.5930     9.3250 ho         1 ZYL       0.369000
     28 H6          10.3100    -0.0030     2.6370 ha         1 ZYL       0.092000
     29 H7          11.2500     0.0050     4.9150 ha         1 ZYL       0.100000
     30 H8           7.8680    -0.0070     2.3100 ha         1 ZYL       0.112000
     31 H9          12.4280     4.0540     7.5000 ha         1 ZYL       0.104000
     32 H10         12.0700     1.7550     6.8190 h4         1 ZYL       0.099000
     33 H11          7.3060     0.0140     6.5520 ha         1 ZYL       0.153000
     34 H12          1.8920     0.8850    -0.5110 hc         1 ZYL       0.010200
     35 H13          1.8920    -0.8850    -0.5110 hc         1 ZYL       0.010200
     36 H14          1.6790    -0.8840     1.9530 hc         1 ZYL       0.018200
     37 H15          1.6790     0.8850     1.9530 hc         1 ZYL       0.018200
     38 H16          3.9310    -0.8850     0.9330 hc         1 ZYL       0.012200
     39 H17          3.9310     0.8840     0.9320 hc         1 ZYL       0.012200
     40 H18          3.7190     0.8860     3.3950 hc         1 ZYL       0.028200
     41 H19          3.7180    -0.8830     3.3960 hc         1 ZYL       0.028200
     42 H20          5.9710    -0.8850     2.3760 h1         1 ZYL      -0.002800
     43 H21          5.9720     0.8840     2.3740 h1         1 ZYL      -0.002800
     44 H22          9.2330    -0.4900     7.9370 h1         1 ZYL       0.029700
     45 H23         10.8670    -0.4960     7.2590 h1         1 ZYL       0.029700
     46 CAQ          9.9120     0.0170     7.2620 c3         1 ZYL       0.131300
     47 OAC          8.1090     1.6400     8.5630 o          1 ZYL      -0.641500
@<TRIPOS>BOND
     1     1    11 1   
     2     1    24 1   
     3     1    25 1   
     4     1    26 1   
     5     2    17 1   
     6     3    17 1   
     7     4    20 1   
     8     4    27 1   
     9     5     6 ar  
    10     5     7 ar  
    11     5    28 1   
    12     6    18 ar  
    13     6    29 1   
    14     7    19 ar  
    15     7    30 1   
    16     8     9 2   
    17     8    20 1   
    18     8    31 1   
    19     9    23 1   
    20     9    32 1   
    21    10    18 ar  
    22    10    19 ar  
    23    10    33 1   
    24    11    12 1   
    25    11    34 1   
    26    11    35 1   
    27    12    13 1   
    28    12    36 1   
    29    12    37 1   
    30    13    14 1   
    31    13    38 1   
    32    13    39 1   
    33    14    15 1   
    34    14    40 1   
    35    14    41 1   
    36    15    16 1   
    37    15    42 1   
    38    15    43 1   
    39    16    19 1   
    40    17    21 1   
    41    18    46 1   
    42    20    21 2   
    43    21    22 1   
    44    22    23 1   
    45    22    47 2   
    46    23    46 1   
    47    44    46 1   
    48    45    46 1   
@<TRIPOS>SUBSTRUCTURE
     1 ZYL         1 TEMP              0 ****  ****    0 ROOT
