@<TRIPOS>MOLECULE
ZYM
   43    44     1     0     0
SMALL
bcc


@<TRIPOS>ATOM
      1 OAA          0.0000     0.0000     0.0000 o          1 ZYM      -0.868300
      2 OAB          3.3130    -0.0020     3.6330 o          1 ZYM      -0.602100
      3 OAC          1.9520     0.0010    -1.0500 o          1 ZYM      -0.868300
      4 OAD          1.4870    -0.0010     2.3360 o          1 ZYM      -0.513100
      5 CAE          3.5990     0.0000     1.2900 c3         1 ZYM      -0.199400
      6 CAF         13.1960    -4.0470     9.4250 ca         1 ZYM      -0.151000
      7 CAG         12.4370    -2.8920     9.4500 ca         1 ZYM      -0.059000
      8 CAH         13.6770    -4.5360     8.2250 ca         1 ZYM      -0.059000
      9 CAI         11.6180     1.4070     5.5630 ca         1 ZYM      -0.088000
     10 CAJ         10.2360     1.3860     5.5890 ca         1 ZYM      -0.092000
     11 CAK         12.1510    -2.2260     8.2740 ca         1 ZYM      -0.175000
     12 CAL         13.3950    -3.8740     7.0460 ca         1 ZYM      -0.175000
     13 CAM         12.3310     0.2280     5.6620 ca         1 ZYM      -0.125000
     14 CAN         10.2710    -0.9980     5.8110 ca         1 ZYM      -0.127000
     15 CAO          7.4450    -0.0010     4.3370 c3         1 ZYM      -0.050400
     16 CAP          5.9150    -0.0010     4.3380 c3         1 ZYM       0.057000
     17 CAQ          7.9550    -0.0010     5.7800 c3         1 ZYM       0.053900
     18 NAR          5.4260    -0.0000     2.9570 ns         1 ZYM      -0.245900
     19 OAS         12.3570    -2.1400     5.8890 os         1 ZYM      -0.225200
     20 CAT          1.3460     0.0000     0.0000 c          1 ZYM       0.900600
     21 CAU          4.1010    -0.0010     2.7100 c          1 ZYM       0.564100
     22 CAV          2.0920     0.0000     1.2910 c          1 ZYM       0.493100
     23 CAW          9.5630     0.1840     5.7120 ca         1 ZYM      -0.076300
     24 CAX         12.6290    -2.7170     7.0670 ca         1 ZYM       0.161100
     25 CAY         11.6590    -0.9780     5.7920 ca         1 ZYM       0.103100
     26 HAE          3.9590     0.8850     0.7800 hc         1 ZYM       0.044700
     27 HAEA         3.9600    -0.8840     0.7790 hc         1 ZYM       0.044700
     28 HAH         14.2740    -5.4400     8.2090 ha         1 ZYM       0.099000
     29 HAI         12.1420     2.3500     5.4640 ha         1 ZYM       0.104000
     30 HAJ          9.6790     2.3120     5.5110 ha         1 ZYM       0.109000
     31 HAK         11.5550    -1.3230     8.2930 ha         1 ZYM       0.120000
     32 HAL         13.7710    -4.2580     6.1050 ha         1 ZYM       0.120000
     33 HAM         13.4140     0.2460     5.6440 ha         1 ZYM       0.113000
     34 HAN          9.7430    -1.9390     5.9100 ha         1 ZYM       0.124000
     35 HAO          7.8050     0.8840     3.8260 hc         1 ZYM       0.019200
     36 HAOA         7.8060    -0.8850     3.8250 hc         1 ZYM       0.019200
     37 HAP          5.5540     0.8830     4.8490 h1         1 ZYM       0.020700
     38 HAPA         5.5540    -0.8870     4.8480 h1         1 ZYM       0.020700
     39 HAQ          7.5950    -0.8860     6.2900 hc         1 ZYM       0.020200
     40 HAQA         7.5940     0.8830     6.2910 hc         1 ZYM       0.020200
     41 HNAR         6.0760     0.0010     2.1960 hn         1 ZYM       0.170500
     42 HAF         13.4190    -4.5670    10.3490 ha         1 ZYM       0.102000
     43 HAG         12.0630    -2.5100    10.3920 ha         1 ZYM       0.099000
@<TRIPOS>BOND
     1     1    20 1   
     2     2    21 2   
     3     3    20 1   
     4     4    22 2   
     5     5    21 1   
     6     5    22 1   
     7     5    26 1   
     8     5    27 1   
     9     6     7 ar  
    10     6     8 ar  
    11     6    42 1   
    12     7    11 ar  
    13     7    43 1   
    14     8    12 ar  
    15     8    28 1   
    16     9    10 ar  
    17     9    13 ar  
    18     9    29 1   
    19    10    23 ar  
    20    10    30 1   
    21    11    24 ar  
    22    11    31 1   
    23    12    24 ar  
    24    12    32 1   
    25    13    25 ar  
    26    13    33 1   
    27    14    23 ar  
    28    14    25 ar  
    29    14    34 1   
    30    15    16 1   
    31    15    17 1   
    32    15    35 1   
    33    15    36 1   
    34    16    18 1   
    35    16    37 1   
    36    16    38 1   
    37    17    23 1   
    38    17    39 1   
    39    17    40 1   
    40    18    21 1   
    41    18    41 1   
    42    19    24 1   
    43    19    25 1   
    44    20    22 1   
@<TRIPOS>SUBSTRUCTURE
     1 ZYM         1 TEMP              0 ****  ****    0 ROOT
