@<TRIPOS>MOLECULE
ZYN
   53    55     1     0     0
SMALL
bcc


@<TRIPOS>ATOM
      1 CAA          0.0000     0.0000     0.0000 c3         1 ZYN      -0.015100
      2 CAB          2.0400     1.2490    -0.7210 c3         1 ZYN      -0.015100
      3 CAC          2.4790    -4.3030    -0.1090 c3         1 ZYN       0.083300
      4 CAD          1.1360    -3.3430     1.8190 c3         1 ZYN       0.083300
      5 OAE          4.0490    -2.1280     0.1920 o          1 ZYN      -0.621100
      6 OAF          3.2030     0.7040     6.2030 o          1 ZYN      -0.665500
      7 OAG          1.0150     1.9460     1.7880 o          1 ZYN      -0.680500
      8 OAH          1.9420     2.0650     4.4100 oh         1 ZYN      -0.431100
      9 CAK          6.9660     1.9200     8.0060 ca         1 ZYN      -0.125000
     10 CAL          5.9090     1.0660     7.7570 ca         1 ZYN      -0.045000
     11 CAM          7.4450    -0.6320     7.0510 ca         1 ZYN      -0.070000
     12 CAN          4.0850    -2.2590     3.5750 c3         1 ZYN       0.019800
     13 CAO          5.1410    -1.7910     4.5720 c3         1 ZYN       0.060000
     14 CAP          4.9950    -1.1410     7.0090 c3         1 ZYN       0.118300
     15 CAQ          3.0710    -2.1710     0.9130 c          1 ZYN       0.605300
     16 CAR          3.5910    -0.0640     5.3450 c          1 ZYN       0.661700
     17 CAS          8.2650     1.5000     7.7770 ca         1 ZYN       0.116900
     18 CAT          6.1490    -0.2100     7.2800 ca         1 ZYN      -0.132300
     19 CAU          8.5040     0.2220     7.3000 ca         1 ZYN      -0.079600
     20 CAV          2.2310     1.0450     3.5690 cc         1 ZYN       0.105900
     21 CAW          3.2710    -1.0840     3.0940 cd         1 ZYN      -0.107200
     22 CAX          3.0210    -0.0140     3.9830 cd         1 ZYN      -0.157200
     23 CAY          2.7800    -1.0530     1.8280 cc         1 ZYN      -0.195600
     24 CAZ          1.7130     1.0330     2.1910 c          1 ZYN       0.555700
     25 CBA          1.5300     0.0000     0.0000 c3         1 ZYN      -0.015300
     26 NBB          2.2520    -3.2410     0.8760 n          1 ZYN      -0.155800
     27 NBC          4.5460    -0.9720     5.6250 n          1 ZYN      -0.152800
     28 NBD          2.0190     0.0000     1.3810 n          1 ZYN       0.136000
     29 HAA         -0.3610    -0.4160     0.9330 hc         1 ZYN       0.021200
     30 HAAA        -0.3610     1.0160    -0.1050 hc         1 ZYN       0.021200
     31 HAAB        -0.3620    -0.5990    -0.8270 hc         1 ZYN       0.021200
     32 HAB          1.3860     2.0850    -0.5020 hc         1 ZYN       0.021200
     33 HABA         3.0430     1.4780    -0.3810 hc         1 ZYN       0.021200
     34 HABB         2.0530     1.0710    -1.7890 hc         1 ZYN       0.021200
     35 HAC          2.3800    -3.8960    -1.1080 h1         1 ZYN       0.014700
     36 HACA         1.7500    -5.0910     0.0350 h1         1 ZYN       0.014700
     37 HACB         3.4770    -4.7070     0.0190 h1         1 ZYN       0.014700
     38 HAD          0.2340    -3.6130     1.2840 h1         1 ZYN       0.014700
     39 HADA         0.9920    -2.3890     2.3110 h1         1 ZYN       0.014700
     40 HADB         1.3570    -4.1020     2.5600 h1         1 ZYN       0.014700
     41 HOAH         1.0070     2.1220     4.5240 ho         1 ZYN       0.415000
     42 HAK          6.7780     2.9200     8.3790 ha         1 ZYN       0.125000
     43 HAL          4.8930     1.3950     7.9350 ha         1 ZYN       0.137000
     44 HAM          7.6320    -1.6310     6.6780 ha         1 ZYN       0.115000
     45 HAN          3.4290    -2.9740     4.0580 hc         1 ZYN       0.033200
     46 HANA         4.5730    -2.7260     2.7280 hc         1 ZYN       0.033200
     47 HAO          5.8870    -1.2060     4.0480 h1         1 ZYN       0.024200
     48 HAOA         5.6120    -2.6570     5.0210 h1         1 ZYN       0.024200
     49 HAP          5.3140    -2.1650     7.1620 h1         1 ZYN       0.034200
     50 HAPA         4.1790    -0.9110     7.6830 h1         1 ZYN       0.034200
     51 HBA          1.8910    -0.8850    -0.5100 h1         1 ZYN       0.048700
     52 FAI          9.2990     2.3350     8.0200 f          1 ZYN      -0.121900
     53 ClAJ        10.1320    -0.3080     7.0130 cl         1 ZYN       0.001600
@<TRIPOS>BOND
     1     1    25 1   
     2     1    29 1   
     3     1    30 1   
     4     1    31 1   
     5     2    25 1   
     6     2    32 1   
     7     2    33 1   
     8     2    34 1   
     9     3    26 1   
    10     3    35 1   
    11     3    36 1   
    12     3    37 1   
    13     4    26 1   
    14     4    38 1   
    15     4    39 1   
    16     4    40 1   
    17     5    15 2   
    18     6    16 2   
    19     7    24 2   
    20     8    20 1   
    21     8    41 1   
    22     9    10 ar  
    23     9    17 ar  
    24     9    42 1   
    25    10    18 ar  
    26    10    43 1   
    27    11    18 ar  
    28    11    19 ar  
    29    11    44 1   
    30    12    13 1   
    31    12    21 1   
    32    12    45 1   
    33    12    46 1   
    34    13    27 1   
    35    13    47 1   
    36    13    48 1   
    37    14    18 1   
    38    14    27 1   
    39    14    49 1   
    40    14    50 1   
    41    15    23 1   
    42    15    26 1   
    43    16    22 1   
    44    16    27 1   
    45    17    19 ar  
    46    17    52 1   
    47    19    53 1   
    48    20    22 2   
    49    20    24 1   
    50    21    22 1   
    51    21    23 2   
    52    23    28 1   
    53    24    28 1   
    54    25    28 1   
    55    25    51 1   
@<TRIPOS>SUBSTRUCTURE
     1 ZYN         1 TEMP              0 ****  ****    0 ROOT
