@<TRIPOS>MOLECULE
molecule
   53    55     1     0     0
SMALL
bcc


@<TRIPOS>ATOM
      1 CAA          0.0000     0.0000     0.0000 c3         1 ZYN      -0.104100
      2 CAB          2.0400     1.2490    -0.7210 c3         1 ZYN      -0.104100
      3 CAC          2.4790    -4.3030    -0.1090 c3         1 ZYN       0.095800
      4 CAD          1.1360    -3.3430     1.8190 c3         1 ZYN       0.095800
      5 OAE          4.0490    -2.1280     0.1920 o          1 ZYN      -0.579100
      6 OAF          3.2030     0.7040     6.2030 o          1 ZYN      -0.621500
      7 OAG          1.0150     1.9460     1.7880 o          1 ZYN      -0.631500
      8 OAH          1.9420     2.0650     4.4100 oh         1 ZYN      -0.452100
      9 CAK          6.9660     1.9200     8.0060 ca         1 ZYN      -0.162000
     10 CAL          5.9090     1.0660     7.7570 ca         1 ZYN      -0.071000
     11 CAM          7.4450    -0.6320     7.0510 ca         1 ZYN      -0.091000
     12 CAN          4.0850    -2.2590     3.5750 c3         1 ZYN      -0.044200
     13 CAO          5.1410    -1.7910     4.5720 c3         1 ZYN       0.112000
     14 CAP          4.9950    -1.1410     7.0090 c3         1 ZYN       0.162300
     15 CAQ          3.0710    -2.1710     0.9130 c          1 ZYN       0.666300
     16 CAR          3.5910    -0.0640     5.3450 c          1 ZYN       0.722700
     17 CAS          8.2650     1.5000     7.7770 ca         1 ZYN       0.146900
     18 CAT          6.1490    -0.2100     7.2800 ca         1 ZYN      -0.124300
     19 CAU          8.5040     0.2220     7.3000 ca         1 ZYN      -0.020600
     20 CAV          2.2310     1.0450     3.5690 cc         1 ZYN       0.072900
     21 CAW          3.2710    -1.0840     3.0940 cd         1 ZYN      -0.126200
     22 CAX          3.0210    -0.0140     3.9830 cd         1 ZYN      -0.117200
     23 CAY          2.7800    -1.0530     1.8280 cc         1 ZYN      -0.018600
     24 CAZ          1.7130     1.0330     2.1910 c          1 ZYN       0.657700
     25 CBA          1.5300     0.0000     0.0000 c3         1 ZYN       0.097700
     26 NBB          2.2520    -3.2410     0.8760 n          1 ZYN      -0.490800
     27 NBC          4.5460    -0.9720     5.6250 n          1 ZYN      -0.486800
     28 NBD          2.0190     0.0000     1.3810 n          1 ZYN      -0.305000
     29 HAA         -0.3610    -0.4160     0.9330 hc         1 ZYN       0.052033
     30 HAAA        -0.3610     1.0160    -0.1050 hc         1 ZYN       0.052033
     31 HAAB        -0.3620    -0.5990    -0.8270 hc         1 ZYN       0.052033
     32 HAB          1.3860     2.0850    -0.5020 hc         1 ZYN       0.052033
     33 HABA         3.0430     1.4780    -0.3810 hc         1 ZYN       0.052033
     34 HABB         2.0530     1.0710    -1.7890 hc         1 ZYN       0.052033
     35 HAC          2.3800    -3.8960    -1.1080 h1         1 ZYN       0.046867
     36 HACA         1.7500    -5.0910     0.0350 h1         1 ZYN       0.046867
     37 HACB         3.4770    -4.7070     0.0190 h1         1 ZYN       0.046867
     38 HAD          0.2340    -3.6130     1.2840 h1         1 ZYN       0.046867
     39 HADA         0.9920    -2.3890     2.3110 h1         1 ZYN       0.046867
     40 HADB         1.3570    -4.1020     2.5600 h1         1 ZYN       0.046867
     41 HOAH         1.0070     2.1220     4.5240 ho         1 ZYN       0.436000
     42 HAK          6.7780     2.9200     8.3790 ha         1 ZYN       0.155000
     43 HAL          4.8930     1.3950     7.9350 ha         1 ZYN       0.166000
     44 HAM          7.6320    -1.6310     6.6780 ha         1 ZYN       0.143000
     45 HAN          3.4290    -2.9740     4.0580 hc         1 ZYN       0.065200
     46 HANA         4.5730    -2.7260     2.7280 hc         1 ZYN       0.065200
     47 HAO          5.8870    -1.2060     4.0480 h1         1 ZYN       0.054700
     48 HAOA         5.6120    -2.6570     5.0210 h1         1 ZYN       0.054700
     49 HAP          5.3140    -2.1650     7.1620 h1         1 ZYN       0.065700
     50 HAPA         4.1790    -0.9110     7.6830 h1         1 ZYN       0.065700
     51 HBA          1.8910    -0.8850    -0.5100 h1         1 ZYN       0.071700
     52 FAI          9.2990     2.3350     8.0200 f          1 ZYN      -0.127900
     53 ClAJ        10.1320    -0.3080     7.0130 cl         1 ZYN      -0.090400
@<TRIPOS>BOND
     1     1    25 1
     2     2    25 1
     3     3    26 1
     4     4    26 1
     5     5    15 2
     6     6    16 2
     7     7    24 2
     8     8    20 1
     9    52    17 1
    10    53    19 1
    11     9    10 ar
    12     9    17 ar
    13    10    18 ar
    14    11    18 ar
    15    11    19 ar
    16    12    13 1
    17    12    21 1
    18    13    27 1
    19    14    18 1
    20    14    27 1
    21    15    23 1
    22    15    26 1
    23    16    22 1
    24    16    27 1
    25    17    19 ar
    26    20    22 2
    27    20    24 1
    28    21    22 1
    29    21    23 2
    30    23    28 1
    31    24    28 1
    32    25    28 1
    33     1    29 1
    34     1    30 1
    35     1    31 1
    36     2    32 1
    37     2    33 1
    38     2    34 1
    39     3    35 1
    40     3    36 1
    41     3    37 1
    42     4    38 1
    43     4    39 1
    44     4    40 1
    45     8    41 1
    46     9    42 1
    47    10    43 1
    48    11    44 1
    49    12    45 1
    50    12    46 1
    51    13    47 1
    52    13    48 1
    53    14    49 1
    54    14    50 1
    55    25    51 1
@<TRIPOS>SUBSTRUCTURE
     1 ZYN         1 TEMP              0 ****  ****    0 ROOT
