@<TRIPOS>MOLECULE
molecule
   60    64     1     0     0
SMALL
bcc


@<TRIPOS>ATOM
      1 NE           0.0000     0.0000     0.0000 n3         1 ZYO      -0.646500
      2 NF          -2.3280     0.0060     6.5100 n          1 ZYO      -0.526800
      3 NG           1.0000     1.0000     2.0690 nh         1 ZYO      -0.713500
      4 NH           2.6900     3.5570     3.6420 n          1 ZYO      -0.097800
      5 NI          -0.3180     1.1150     4.9220 na         1 ZYO      -0.031100
      6 CAA         -2.8060    -2.2250     7.5280 c3         1 ZYO      -0.110100
      7 CAB         -0.2380    -1.2620     4.8280 c3         1 ZYO      -0.117100
      8 CAC         -0.5960    -1.2670     0.4760 c3         1 ZYO       0.129100
      9 OAF         -1.5290     1.0400     1.7740 o          1 ZYO      -0.592300
     10 OAG         -0.1280     2.3540     0.1510 o          1 ZYO      -0.592300
     11 CAK          2.9200     5.9790    -0.1150 ca         1 ZYO      -0.156000
     12 CAL          3.3550     5.0770     0.8430 ca         1 ZYO      -0.067000
     13 CAM          2.7520     6.6350     2.6480 ca         1 ZYO      -0.069000
     14 CAN         -3.2680    -0.7690     7.3740 c3         1 ZYO       0.113000
     15 CAO          1.4890     0.0000     0.0000 c3         1 ZYO       0.096800
     16 CAP          1.8900     0.0000     1.4840 c3         1 ZYO       0.161800
     17 CAQ          3.7510     4.4370     3.2310 c3         1 ZYO       0.147300
     18 CAR         -2.4320    -0.1510     5.0340 c3         1 ZYO       0.110000
     19 NAS          2.2970     2.7170     2.8340 nc         1 ZYO      -0.440300
     20 CAT         -1.4520     0.9650     7.0720 c          1 ZYO       0.745100
     21 CAU          2.3930     7.1860     0.3270 ca         1 ZYO       0.158900
     22 CAV          3.2640     5.4080     2.1950 ca         1 ZYO      -0.144300
     23 CAW          2.3140     7.5060     1.6770 ca         1 ZYO      -0.033600
     24 CAX          0.4090     2.6150     6.4270 cc         1 ZYO       0.199100
     25 CAY          1.3130     1.8310     3.0800 cd         1 ZYO       0.526800
     26 CAZ         -0.5230     1.5910     6.2390 cd         1 ZYO      -0.189900
     27 CBA          2.1470     3.6580     4.9190 c          1 ZYO       0.687100
     28 CBB          1.1360     2.7820     5.2630 cc         1 ZYO      -0.254600
     29 CBC          0.6990     1.8540     4.3290 cd         1 ZYO      -0.057200
     30 CBD         -1.0670    -0.0350     4.4060 c3         1 ZYO       0.026000
     31 SBJ         -0.2520     1.1460     1.0360 s6         1 ZYO       1.339800
     32 HAA         -3.0080    -2.7660     6.6110 hc         1 ZYO       0.040367
     33 HAAA        -3.3420    -2.6890     8.3470 hc         1 ZYO       0.040367
     34 HAAB        -1.7430    -2.2470     7.7330 hc         1 ZYO       0.040367
     35 HAB         -0.0950    -1.2500     5.9020 hc         1 ZYO       0.048700
     36 HABA         0.7270    -1.2320     4.3360 hc         1 ZYO       0.048700
     37 HABB        -0.7610    -2.1670     4.5440 hc         1 ZYO       0.048700
     38 HAC         -1.6620    -1.1330     0.6170 h1         1 ZYO       0.067700
     39 HACA        -0.1400    -1.5500     1.4170 h1         1 ZYO       0.067700
     40 HACB        -0.4240    -2.0450    -0.2580 h1         1 ZYO       0.067700
     41 HOAH        -0.0960     4.0340     7.6080 ho         1 ZYO       0.429000
     42 HAK          2.9790     5.7470    -1.1720 ha         1 ZYO       0.160000
     43 HAL          3.7650     4.1200     0.5440 ha         1 ZYO       0.144000
     44 HAM          2.6890     6.8740     3.7020 ha         1 ZYO       0.170000
     45 HAN         -3.3140    -0.3060     8.3530 h1         1 ZYO       0.059200
     46 HANA        -4.2550    -0.7550     6.9280 h1         1 ZYO       0.059200
     47 HAO          1.8630    -0.8910    -0.4890 h1         1 ZYO       0.110200
     48 HAOA         1.8630     0.8910    -0.4890 h1         1 ZYO       0.110200
     49 HAP          1.7130    -0.9730     1.9260 h1         1 ZYO       0.078700
     50 HAPA         2.9250     0.2980     1.5980 h1         1 ZYO       0.078700
     51 HAQ          4.1130     4.9860     4.0920 h1         1 ZYO       0.085700
     52 HAQA         4.5610     3.8500     2.8160 h1         1 ZYO       0.085700
     53 HAR         -3.0760     0.6240     4.6360 h1         1 ZYO       0.065200
     54 HARA        -2.8490    -1.1240     4.8060 h1         1 ZYO       0.065200
     55 HBD         -1.1500     0.0210     3.3280 h1         1 ZYO       0.115700
     56 OAD         -1.3780     1.0870     8.3030 o          1 ZYO      -0.614500
     57 OAE          2.5490     4.4950     5.7290 o          1 ZYO      -0.601500
     58 OAH          0.5840     3.3830     7.5620 oh         1 ZYO      -0.471100
     59 FAI          1.9720     8.1070    -0.5420 f          1 ZYO      -0.122900
     60 ClAJ         1.6400     9.0140     2.1230 cl         1 ZYO      -0.073400
@<TRIPOS>BOND
     1     1     8 1
     2     1    15 1
     3     1    31 1
     4     2    14 1
     5     2    18 1
     6     2    20 1
     7     3    16 1
     8     3    25 1
     9     3    31 1
    10     4    17 1
    11     4    19 1
    12     4    27 1
    13     5    26 1
    14     5    29 1
    15     5    30 1
    16     6    14 1
    17     7    30 1
    18    56    20 2
    19    57    27 2
    20     9    31 2
    21    10    31 2
    22    58    24 1
    23    59    21 1
    24    60    23 1
    25    11    12 ar
    26    11    21 ar
    27    12    22 ar
    28    13    22 ar
    29    13    23 ar
    30    15    16 1
    31    17    22 1
    32    18    30 1
    33    19    25 2
    34    20    26 1
    35    21    23 ar
    36    24    26 2
    37    24    28 1
    38    25    29 1
    39    27    28 1
    40    28    29 2
    41     6    32 1
    42     6    33 1
    43     6    34 1
    44     7    35 1
    45     7    36 1
    46     7    37 1
    47     8    38 1
    48     8    39 1
    49     8    40 1
    50    58    41 1
    51    11    42 1
    52    12    43 1
    53    13    44 1
    54    14    45 1
    55    14    46 1
    56    15    47 1
    57    15    48 1
    58    16    49 1
    59    16    50 1
    60    17    51 1
    61    17    52 1
    62    18    53 1
    63    18    54 1
    64    30    55 1
@<TRIPOS>SUBSTRUCTURE
     1 ZYO         1 TEMP              0 ****  ****    0 ROOT
