@<TRIPOS>MOLECULE
molecule
   49    52     1     0     0
SMALL
bcc


@<TRIPOS>ATOM
      1 OAA          0.0000     0.0000     0.0000 o          1 ZYP      -0.587100
      2 OAB          5.2400     2.3710     1.7170 o          1 ZYP      -0.609300
      3 OAC          6.7160     1.6280     3.5620 o          1 ZYP      -0.609300
      4 CAF          3.3690    -0.0010     6.0240 ca         1 ZYP      -0.245300
      5 CAG          1.9780     0.0000     5.9970 ca         1 ZYP       0.441200
      6 CAH          3.4820    -1.1990    -5.1570 ca         1 ZYP      -0.172000
      7 CAI          3.4820     1.1980    -5.1580 ca         1 ZYP      -0.172000
      8 CAJ          2.5850    -1.1980    -4.1070 ca         1 ZYP      -0.086500
      9 CAK          2.5840     1.1970    -4.1070 ca         1 ZYP      -0.086500
     10 CAL          4.0760     0.0000     4.8510 ca         1 ZYP      -0.066000
     11 CAM          6.9400    -1.4270     1.3860 c3         1 ZYP      -0.121400
     12 CAN          8.0120    -0.3400     1.3710 c3         1 ZYP      -0.067400
     13 CAO          5.9950    -1.2380     2.5710 c3         1 ZYP       0.221800
     14 CAP          1.1570    -0.0000    -2.4360 c3         1 ZYP       0.163300
     15 CAQ          7.3800     1.0070     1.0030 c3         1 ZYP      -0.210600
     16 NAR          1.3090     0.0010     4.8660 nb         1 ZYP      -0.671000
     17 NAS          3.2910    -0.0010     1.2520 nb         1 ZYP      -0.680000
     18 CAU          1.2160     0.0000     0.0000 c          1 ZYP       0.575600
     19 CAV          3.9330    -0.0000    -5.6840 ca         1 ZYP       0.138900
     20 CAW          2.1360    -0.0010    -3.5820 ca         1 ZYP      -0.131300
     21 CAX          1.2380     0.0000     2.4650 ca         1 ZYP       0.042500
     22 CAY          1.9540    -0.0000     1.2770 ca         1 ZYP       0.344800
     23 CAZ          4.0180    -0.0010     2.3490 ca         1 ZYP       0.678200
     24 CBA          3.3560    -0.0000     3.6490 ca         1 ZYP      -0.275600
     25 CBB          1.9410     0.0000     3.6930 ca         1 ZYP       0.387600
     26 NBC          5.2630     0.0290     2.4170 nh         1 ZYP      -0.755200
     27 SBD          6.1480     1.4310     2.2740 s6         1 ZYP       1.314900
     28 HOAD        -0.4370    -0.8150     2.7970 ho         1 ZYP       0.435000
     29 HAF          3.8920    -0.0020     6.9730 ha         1 ZYP       0.145000
     30 HAG          1.4310    -0.0010     6.9320 h4         1 ZYP       0.029100
     31 HAH          3.8340    -2.1380    -5.5680 ha         1 ZYP       0.147000
     32 HAI          3.8340     2.1370    -5.5690 ha         1 ZYP       0.147000
     33 HAJ          2.2320    -2.1360    -3.6950 ha         1 ZYP       0.143500
     34 HAK          2.2320     2.1350    -3.6950 ha         1 ZYP       0.143500
     35 HAL          5.1600    -0.0010     4.8530 ha         1 ZYP       0.160000
     36 HAM          7.4180    -2.3960     1.4630 hc         1 ZYP       0.066700
     37 HAMA         6.3700    -1.3760     0.4660 hc         1 ZYP       0.066700
     38 HAN          8.4630    -0.2680     2.3530 hc         1 ZYP       0.061200
     39 HANA         8.7690    -0.5930     0.6390 hc         1 ZYP       0.061200
     40 HAO          5.2900    -2.0590     2.6040 h1         1 ZYP       0.066700
     41 HAOA         6.5700    -1.2120     3.4890 h1         1 ZYP       0.066700
     42 HAP          0.5340    -0.8840    -2.4940 h1         1 ZYP       0.059700
     43 HAPA         0.5350     0.8850    -2.4930 h1         1 ZYP       0.059700
     44 HAQ          8.1460     1.7710     0.9710 h1         1 ZYP       0.108700
     45 HAQA         6.8940     0.9290     0.0380 h1         1 ZYP       0.108700
     46 HNAT         2.8910    -0.0150    -1.1680 hn         1 ZYP       0.333500
     47 OAD         -0.1180     0.0010     2.4490 oh         1 ZYP      -0.461100
     48 NAT          1.8900    -0.0010    -1.1680 ns         1 ZYP      -0.571900
     49 FAE          4.8110    -0.0010    -6.7100 f          1 ZYP      -0.139900
@<TRIPOS>BOND
     1     1    18 2
     2     2    27 2
     3     3    27 2
     4    47    21 1
     5    49    19 1
     6     4     5 ar
     7     4    10 ar
     8     5    16 ar
     9     6     8 ar
    10     6    19 ar
    11     7     9 ar
    12     7    19 ar
    13     8    20 ar
    14     9    20 ar
    15    10    24 ar
    16    11    12 1
    17    11    13 1
    18    12    15 1
    19    13    26 1
    20    14    48 1
    21    14    20 1
    22    15    27 1
    23    16    25 ar
    24    17    22 ar
    25    17    23 ar
    26    48    18 1
    27    18    22 1
    28    21    22 ar
    29    21    25 ar
    30    23    24 ar
    31    23    26 1
    32    24    25 ar
    33    26    27 1
    34    47    28 1
    35     4    29 1
    36     5    30 1
    37     6    31 1
    38     7    32 1
    39     8    33 1
    40     9    34 1
    41    10    35 1
    42    11    36 1
    43    11    37 1
    44    12    38 1
    45    12    39 1
    46    13    40 1
    47    13    41 1
    48    14    42 1
    49    14    43 1
    50    15    44 1
    51    15    45 1
    52    48    46 1
@<TRIPOS>SUBSTRUCTURE
     1 ZYP         1 TEMP              0 ****  ****    0 ROOT
