@<TRIPOS>MOLECULE
ZYP
   49    52     1     0     0
SMALL
bcc


@<TRIPOS>ATOM
      1 OAA          0.0000     0.0000     0.0000 o          1 ZYP      -0.636100
      2 OAB          5.2400     2.3710     1.7170 o          1 ZYP      -0.567800
      3 OAC          6.7160     1.6280     3.5620 o          1 ZYP      -0.567800
      4 CAF          3.3690    -0.0010     6.0240 ca         1 ZYP      -0.208300
      5 CAG          1.9780     0.0000     5.9970 ca         1 ZYP       0.416200
      6 CAH          3.4820    -1.1990    -5.1570 ca         1 ZYP      -0.136000
      7 CAI          3.4820     1.1980    -5.1580 ca         1 ZYP      -0.136000
      8 CAJ          2.5850    -1.1980    -4.1070 ca         1 ZYP      -0.057000
      9 CAK          2.5840     1.1970    -4.1070 ca         1 ZYP      -0.057000
     10 CAL          4.0760     0.0000     4.8510 ca         1 ZYP      -0.049000
     11 CAM          6.9400    -1.4270     1.3860 c3         1 ZYP      -0.066400
     12 CAN          8.0120    -0.3400     1.3710 c3         1 ZYP      -0.001400
     13 CAO          5.9950    -1.2380     2.5710 c3         1 ZYP       0.213800
     14 CAP          1.1570    -0.0000    -2.4360 c3         1 ZYP       0.112300
     15 CAQ          7.3800     1.0070     1.0030 c3         1 ZYP       0.001400
     16 NAR          1.3090     0.0010     4.8660 nb         1 ZYP      -0.557000
     17 NAS          3.2910    -0.0010     1.2520 nb         1 ZYP      -0.551000
     18 CAU          1.2160     0.0000     0.0000 c          1 ZYP       0.488600
     19 CAV          3.9330    -0.0000    -5.6840 ca         1 ZYP       0.108900
     20 CAW          2.1360    -0.0010    -3.5820 ca         1 ZYP      -0.135300
     21 CAX          1.2380     0.0000     2.4650 ca         1 ZYP       0.071500
     22 CAY          1.9540    -0.0000     1.2770 ca         1 ZYP       0.264800
     23 CAZ          4.0180    -0.0010     2.3490 ca         1 ZYP       0.544200
     24 CBA          3.3560    -0.0000     3.6490 ca         1 ZYP      -0.264600
     25 CBB          1.9410     0.0000     3.6930 ca         1 ZYP       0.331600
     26 NBC          5.2630     0.0290     2.4170 nh         1 ZYP      -0.450200
     27 SBD          6.1480     1.4310     2.2740 s6         1 ZYP       0.951900
     28 HOAD        -0.4370    -0.8150     2.7970 ho         1 ZYP       0.412000
     29 HAF          3.8920    -0.0020     6.9730 ha         1 ZYP       0.116000
     30 HAG          1.4310    -0.0010     6.9320 h4         1 ZYP      -0.018900
     31 HAH          3.8340    -2.1380    -5.5680 ha         1 ZYP       0.120000
     32 HAI          3.8340     2.1370    -5.5690 ha         1 ZYP       0.120000
     33 HAJ          2.2320    -2.1360    -3.6950 ha         1 ZYP       0.113500
     34 HAK          2.2320     2.1350    -3.6950 ha         1 ZYP       0.113500
     35 HAL          5.1600    -0.0010     4.8530 ha         1 ZYP       0.136000
     36 HAM          7.4180    -2.3960     1.4630 hc         1 ZYP       0.032200
     37 HAMA         6.3700    -1.3760     0.4660 hc         1 ZYP       0.032200
     38 HAN          8.4630    -0.2680     2.3530 hc         1 ZYP       0.028200
     39 HANA         8.7690    -0.5930     0.6390 hc         1 ZYP       0.028200
     40 HAO          5.2900    -2.0590     2.6040 h1         1 ZYP       0.028700
     41 HAOA         6.5700    -1.2120     3.4890 h1         1 ZYP       0.028700
     42 HAP          0.5340    -0.8840    -2.4940 h1         1 ZYP       0.029200
     43 HAPA         0.5350     0.8850    -2.4930 h1         1 ZYP       0.029200
     44 HAQ          8.1460     1.7710     0.9710 h1         1 ZYP       0.076200
     45 HAQA         6.8940     0.9290     0.0380 h1         1 ZYP       0.076200
     46 HNAT         2.8910    -0.0150    -1.1680 hn         1 ZYP       0.191500
     47 OAD         -0.1180     0.0010     2.4490 oh         1 ZYP      -0.440100
     48 NAT          1.8900    -0.0010    -1.1680 ns         1 ZYP      -0.187900
     49 FAE          4.8110    -0.0010    -6.7100 f          1 ZYP      -0.127900
@<TRIPOS>BOND
     1     1    18 2   
     2     2    27 2   
     3     3    27 2   
     4     4     5 ar  
     5     4    10 ar  
     6     4    29 1   
     7     5    16 ar  
     8     5    30 1   
     9     6     8 ar  
    10     6    19 ar  
    11     6    31 1   
    12     7     9 ar  
    13     7    19 ar  
    14     7    32 1   
    15     8    20 ar  
    16     8    33 1   
    17     9    20 ar  
    18     9    34 1   
    19    10    24 ar  
    20    10    35 1   
    21    11    12 1   
    22    11    13 1   
    23    11    36 1   
    24    11    37 1   
    25    12    15 1   
    26    12    38 1   
    27    12    39 1   
    28    13    26 1   
    29    13    40 1   
    30    13    41 1   
    31    14    20 1   
    32    14    42 1   
    33    14    43 1   
    34    14    48 1   
    35    15    27 1   
    36    15    44 1   
    37    15    45 1   
    38    16    25 ar  
    39    17    22 ar  
    40    17    23 ar  
    41    18    22 1   
    42    18    48 1   
    43    19    49 1   
    44    21    22 ar  
    45    21    25 ar  
    46    21    47 1   
    47    23    24 ar  
    48    23    26 1   
    49    24    25 ar  
    50    26    27 1   
    51    28    47 1   
    52    46    48 1   
@<TRIPOS>SUBSTRUCTURE
     1 ZYP         1 TEMP              0 ****  ****    0 ROOT
