@<TRIPOS>MOLECULE
ZYQ
   26    27     1     0     0
SMALL
bcc


@<TRIPOS>ATOM
      1 CAA          0.0000     0.0000     0.0000 c3         1 ZYQ      -0.060100
      2 CAK          1.5060     0.0000     0.0000 c          1 ZYQ       0.538100
      3 OAB          2.1140     0.0000     1.0500 o          1 ZYQ      -0.596100
      4 NAI          2.1810    -0.0010    -1.1670 ns         1 ZYQ      -0.055400
      5 CAN          3.5640    -0.0000    -1.1670 cc         1 ZYQ       0.400300
      6 NAG          4.3060    -0.0010    -2.2350 nd         1 ZYQ      -0.625000
      7 CAM          5.6140    -0.0010    -2.0800 cd         1 ZYQ       0.383600
      8 CAF          6.6290     0.0230    -3.2030 c3         1 ZYQ      -0.045700
      9 CAD          7.3230     1.3860    -3.2490 c3         1 ZYQ      -0.040400
     10 CAE          7.6500     1.8480    -1.8280 c3         1 ZYQ       0.032000
     11 NAH          8.2180     0.8010    -0.9940 ns         1 ZYQ      -0.191900
     12 CAL          7.3880    -0.0390    -0.3290 c          1 ZYQ       0.689100
     13 OAC          7.7820    -0.7670     0.5640 o          1 ZYQ      -0.660500
     14 CAO          5.9800    -0.0130    -0.7580 cc         1 ZYQ      -0.238000
     15 SAJ          4.5400     0.0080     0.2380 ss         1 ZYQ      -0.132300
     16 HAA1        -0.3610     0.8840    -0.5120 hc         1 ZYQ       0.028033
     17 HAA2        -0.3610    -0.8850    -0.5090 hc         1 ZYQ       0.028033
     18 HAA3        -0.3610     0.0010     1.0210 hc         1 ZYQ       0.028033
     19 HAI          1.6810    -0.0020    -2.0340 hn         1 ZYQ       0.177500
     20 HAF1         6.1250    -0.1540    -4.1460 hc         1 ZYQ       0.029200
     21 HAF2         7.3690    -0.7500    -3.0340 hc         1 ZYQ       0.029200
     22 HAD1         6.6660     2.1080    -3.7180 hc         1 ZYQ       0.022200
     23 HAD2         8.2410     1.3030    -3.8190 hc         1 ZYQ       0.022200
     24 HAE1         8.3580     2.6660    -1.8850 h1         1 ZYQ       0.025200
     25 HAE2         6.7380     2.2030    -1.3620 h1         1 ZYQ       0.025200
     26 HAH          9.2110     0.7030    -0.9120 hn         1 ZYQ       0.183500
@<TRIPOS>BOND
     1     1     2 1   
     2     1    16 1   
     3     1    17 1   
     4     1    18 1   
     5     2     3 2   
     6     2     4 1   
     7     4     5 1   
     8     4    19 1   
     9     5     6 2   
    10     5    15 1   
    11     6     7 1   
    12     7     8 1   
    13     7    14 2   
    14     8     9 1   
    15     8    20 1   
    16     8    21 1   
    17     9    10 1   
    18     9    22 1   
    19     9    23 1   
    20    10    11 1   
    21    10    24 1   
    22    10    25 1   
    23    11    12 1   
    24    11    26 1   
    25    12    13 2   
    26    12    14 1   
    27    14    15 1   
@<TRIPOS>SUBSTRUCTURE
     1 ZYQ         1 TEMP              0 ****  ****    0 ROOT
