@<TRIPOS>MOLECULE
molecule
   26    27     1     0     0
SMALL
bcc


@<TRIPOS>ATOM
      1 CAA          0.0000     0.0000     0.0000 c3         1 ZYQ      -0.164100
      2 CAK          1.5060     0.0000     0.0000 c          1 ZYQ       0.653100
      3 OAB          2.1140     0.0000     1.0500 o          1 ZYQ      -0.582100
      4 NAI          2.1810    -0.0010    -1.1670 ns         1 ZYQ      -0.517400
      5 CAN          3.5640    -0.0000    -1.1670 cc         1 ZYQ       0.528300
      6 NAG          4.3060    -0.0010    -2.2350 nd         1 ZYQ      -0.750000
      7 CAM          5.6140    -0.0010    -2.0800 cd         1 ZYQ       0.435600
      8 CAF          6.6290     0.0230    -3.2030 c3         1 ZYQ      -0.100700
      9 CAD          7.3230     1.3860    -3.2490 c3         1 ZYQ      -0.101400
     10 CAE          7.6500     1.8480    -1.8280 c3         1 ZYQ       0.102000
     11 NAH          8.2180     0.8010    -0.9940 ns         1 ZYQ      -0.581900
     12 CAL          7.3880    -0.0390    -0.3290 c          1 ZYQ       0.758100
     13 OAC          7.7820    -0.7670     0.5640 o          1 ZYQ      -0.627500
     14 CAO          5.9800    -0.0130    -0.7580 cc         1 ZYQ      -0.306000
     15 SAJ          4.5400     0.0080     0.2380 ss         1 ZYQ       0.031700
     16 HAA1        -0.3610     0.8840    -0.5120 hc         1 ZYQ       0.070033
     17 HAA2        -0.3610    -0.8850    -0.5090 hc         1 ZYQ       0.070033
     18 HAA3        -0.3610     0.0010     1.0210 hc         1 ZYQ       0.070033
     19 HAI          1.6810    -0.0020    -2.0340 hn         1 ZYQ       0.344500
     20 HAF1         6.1250    -0.1540    -4.1460 hc         1 ZYQ       0.064200
     21 HAF2         7.3690    -0.7500    -3.0340 hc         1 ZYQ       0.064200
     22 HAD1         6.6660     2.1080    -3.7180 hc         1 ZYQ       0.052700
     23 HAD2         8.2410     1.3030    -3.8190 hc         1 ZYQ       0.052700
     24 HAE1         8.3580     2.6660    -1.8850 h1         1 ZYQ       0.051700
     25 HAE2         6.7380     2.2030    -1.3620 h1         1 ZYQ       0.051700
     26 HAH          9.2110     0.7030    -0.9120 hn         1 ZYQ       0.328500
@<TRIPOS>BOND
     1     1     2 1
     2     2     3 2
     3     2     4 1
     4     4     5 1
     5     5     6 2
     6     5    15 1
     7     6     7 1
     8     7     8 1
     9     7    14 2
    10     8     9 1
    11     9    10 1
    12    10    11 1
    13    11    12 1
    14    12    13 2
    15    12    14 1
    16    14    15 1
    17     1    16 1
    18     1    17 1
    19     1    18 1
    20     4    19 1
    21     8    20 1
    22     8    21 1
    23     9    22 1
    24     9    23 1
    25    10    24 1
    26    10    25 1
    27    11    26 1
@<TRIPOS>SUBSTRUCTURE
     1 ZYQ         1 TEMP              0 ****  ****    0 ROOT
