@<TRIPOS>MOLECULE
molecule
   24    26     1     0     0
SMALL
bcc


@<TRIPOS>ATOM
      1 OAA          0.0000     0.0000     0.0000 o          1 ZYR      -0.637500
      2 CAL          1.2200     0.0000     0.0000 c          1 ZYR       0.717100
      3 CAN          1.9500     0.0000     1.2290 cc         1 ZYR      -0.241600
      4 CAK          1.4500    -0.0010     2.5970 cc         1 ZYR      -0.038300
      5 CAF         -0.0350    -0.0020     2.9330 c3         1 ZYR      -0.012100
      6 CAD         -0.2120    -0.4330     4.3900 c3         1 ZYR      -0.084400
      7 CAC          0.7090     0.4100     5.2780 c3         1 ZYR      -0.078400
      8 CAE          2.1600    -0.0020     5.0200 c3         1 ZYR       0.003900
      9 CAJ          2.4130     0.0000     3.5230 cd         1 ZYR      -0.052400
     10 SAI          4.0060     0.0020     2.7850 ss         1 ZYR      -0.077800
     11 CAM          3.3350     0.0010     1.1620 cd         1 ZYR       0.255300
     12 NAG          3.9450     0.0010    -0.0450 nd         1 ZYR      -0.624100
     13 CAB          3.2640     0.0020    -1.1520 cc         1 ZYR       0.501800
     14 NAH          1.9070    -0.0040    -1.1600 ns         1 ZYR      -0.463400
     15 HAH          1.4130    -0.0040    -2.0300 hn         1 ZYR       0.340500
     16 HAF1        -0.4370     0.9950     2.8000 hc         1 ZYR       0.068700
     17 HAF2        -0.5530    -0.6980     2.2840 hc         1 ZYR       0.068700
     18 HAD1         0.0480    -1.4800     4.4910 hc         1 ZYR       0.046200
     19 HAD2        -1.2420    -0.2800     4.6900 hc         1 ZYR       0.046200
     20 HAC1         0.5830     1.4590     5.0360 hc         1 ZYR       0.047200
     21 HAC2         0.4640     0.2400     6.3190 hc         1 ZYR       0.047200
     22 HAE1         2.3300    -0.9960     5.4140 hc         1 ZYR       0.053700
     23 HAE2         2.8280     0.7040     5.5010 hc         1 ZYR       0.053700
     24 HAB          3.7950    -0.0010    -2.0970 h5         1 ZYR       0.061800
@<TRIPOS>BOND
     1     1     2 2
     2     2     3 1
     3     2    14 1
     4     3     4 1
     5     3    11 2
     6     4     5 1
     7     4     9 2
     8     5     6 1
     9     6     7 1
    10     7     8 1
    11     8     9 1
    12     9    10 1
    13    10    11 1
    14    11    12 1
    15    12    13 2
    16    13    14 1
    17    14    15 1
    18     5    16 1
    19     5    17 1
    20     6    18 1
    21     6    19 1
    22     7    20 1
    23     7    21 1
    24     8    22 1
    25     8    23 1
    26    13    24 1
@<TRIPOS>SUBSTRUCTURE
     1 ZYR         1 TEMP              0 ****  ****    0 ROOT
