@<TRIPOS>MOLECULE
molecule
   36    37     1     0     0
SMALL
bcc


@<TRIPOS>ATOM
      1 CAA          0.0000     0.0000     0.0000 c3         1 ZYS      -0.101433
      2 CAS          1.5300     0.0000     0.0000 c3         1 ZYS       0.247200
      3 CAB          2.0400     0.0000     1.4430 c3         1 ZYS      -0.101433
      4 CAC          2.0410    -1.2490    -0.7210 c3         1 ZYS      -0.101433
      5 NAL          2.0190     1.1970    -0.6900 nu         1 ZYS      -0.876900
      6 CAQ          1.6850     2.4460    -0.2200 cc         1 ZYS       0.764300
      7 SAM          2.1880     3.9170    -0.9310 ss         1 ZYS      -0.222300
      8 NAK          0.9400     2.6690     0.8240 nd         1 ZYS      -0.831000
      9 CAO          0.7120     3.9200     1.1470 cd         1 ZYS       0.772200
     10 NAD         -0.0640     4.2950     2.2320 nv         1 ZYS      -0.999500
     11 CAR          1.3170     4.8290     0.2980 cc         1 ZYS      -0.356000
     12 CAN          1.2470     6.2310     0.3970 c          1 ZYS       0.641300
     13 OAE          0.5130     6.7480     1.2220 o          1 ZYS      -0.565100
     14 CAP          2.0650     7.0780    -0.5000 ca         1 ZYS      -0.157600
     15 CAI          1.6390     8.3650    -0.8300 ca         1 ZYS      -0.090500
     16 CAG          2.4050     9.1500    -1.6670 ca         1 ZYS      -0.138500
     17 CAF          3.5940     8.6620    -2.1790 ca         1 ZYS      -0.111000
     18 CAH          4.0220     7.3870    -1.8560 ca         1 ZYS      -0.138500
     19 CAJ          3.2680     6.5950    -1.0160 ca         1 ZYS      -0.090500
     20 HAA1        -0.3610     0.6100     0.8190 hc         1 ZYS       0.046922
     21 HAA2        -0.3610    -1.0140     0.1190 hc         1 ZYS       0.046922
     22 HAA3        -0.3610     0.4040    -0.9380 hc         1 ZYS       0.046922
     23 HAB1         3.0610     0.3610     1.4660 hc         1 ZYS       0.046922
     24 HAB2         1.4150     0.6470     2.0470 hc         1 ZYS       0.046922
     25 HAB3         2.0050    -1.0080     1.8390 hc         1 ZYS       0.046922
     26 HAC1         1.6820    -2.1340    -0.2100 hc         1 ZYS       0.046922
     27 HAC2         1.6800    -1.2490    -1.7430 hc         1 ZYS       0.046922
     28 HAC3         3.1250    -1.2470    -0.7220 hc         1 ZYS       0.046922
     29 HAD1        -0.9150     3.8080     2.4290 hn         1 ZYS       0.449300
     30 HAD2         0.2640     5.0020     2.8600 hn         1 ZYS       0.449300
     31 HAI          0.7080     8.7480    -0.4290 ha         1 ZYS       0.145500
     32 HAJ          3.6040     5.5970    -0.7640 ha         1 ZYS       0.145500
     33 HAG          2.0760    10.1490    -1.9230 ha         1 ZYS       0.131500
     34 HAF          4.1920     9.2810    -2.8380 ha         1 ZYS       0.129000
     35 HAH          4.9550     7.0120    -2.2590 ha         1 ZYS       0.131500
     36 HAL          2.5630     1.1050    -1.5250 hn         1 ZYS       0.453800
@<TRIPOS>BOND
     1     1     2 1
     2     2     3 1
     3     2     4 1
     4     2     5 1
     5     5     6 1
     6     6     7 1
     7     6     8 2
     8     7    11 1
     9     8     9 1
    10     9    10 1
    11     9    11 2
    12    11    12 1
    13    12    13 2
    14    12    14 1
    15    14    15 ar
    16    14    19 ar
    17    15    16 ar
    18    16    17 ar
    19    17    18 ar
    20    18    19 ar
    21     1    20 1
    22     1    21 1
    23     1    22 1
    24     3    23 1
    25     3    24 1
    26     3    25 1
    27     4    26 1
    28     4    27 1
    29     4    28 1
    30    10    29 1
    31    10    30 1
    32    15    31 1
    33    19    32 1
    34    16    33 1
    35    17    34 1
    36    18    35 1
    37     5    36 1
@<TRIPOS>SUBSTRUCTURE
     1 ZYS         1 TEMP              0 ****  ****    0 ROOT
