@<TRIPOS>MOLECULE
molecule
   24    25     1     0     0
SMALL
bcc


@<TRIPOS>ATOM
      1 CAA          0.0000     0.0000     0.0000 c3         1 ZYT      -0.001000
      2 SAI          1.8100     0.0000     0.0000 ss         1 ZYT      -0.301400
      3 CAL          2.1160     0.0000     1.7350 cc         1 ZYT       0.542800
      4 NAG          3.3410     0.0000     2.3250 na         1 ZYT      -0.275900
      5 NAH          1.2000     0.0060     2.6760 nd         1 ZYT      -0.766000
      6 CAM          1.7960     0.0040     3.8800 cd         1 ZYT       0.561600
      7 OAB          1.1620     0.0090     5.0850 oh         1 ZYT      -0.597300
      8 CAN          3.1310     0.0000     3.6920 cc         1 ZYT      -0.243900
      9 CAC          4.1900     0.0000     4.7630 c3         1 ZYT       0.092200
     10 CAK          4.3680     1.3990     5.2940 cc         1 ZYT      -0.025400
     11 CAF          3.6960     1.9250     6.3190 cd         1 ZYT      -0.140000
     12 CAD          4.0300     3.2320     6.6280 cd         1 ZYT      -0.154000
     13 CAE          4.9750     3.7680     5.8530 cc         1 ZYT      -0.066100
     14 SAJ          5.5010     2.5880     4.6610 ss         1 ZYT      -0.189800
     15 HAA1        -0.3610     0.8850     0.5100 h1         1 ZYT       0.073700
     16 HAA2        -0.3610    -0.0000    -1.0210 h1         1 ZYT       0.073700
     17 HAA3        -0.3610    -0.8840     0.5110 h1         1 ZYT       0.073700
     18 HAG          4.2270    -0.0030     1.8590 hn         1 ZYT       0.311700
     19 HAB          0.2990    -0.3600     4.9870 ho         1 ZYT       0.430000
     20 HAC1         5.1260    -0.3500     4.3460 hc         1 ZYT       0.063700
     21 HAC2         3.8870    -0.6560     5.5700 hc         1 ZYT       0.063700
     22 HAF          2.9440     1.3700     6.8690 ha         1 ZYT       0.158000
     23 HAD          3.5590     3.7790     7.4360 ha         1 ZYT       0.148000
     24 HAE          5.3620     4.7760     5.9470 h4         1 ZYT       0.169000
@<TRIPOS>BOND
     1     1     2 1
     2     2     3 1
     3     3     4 1
     4     3     5 2
     5     4     8 1
     6     5     6 1
     7     6     7 1
     8     6     8 2
     9     8     9 1
    10     9    10 1
    11    10    11 2
    12    10    14 1
    13    11    12 1
    14    12    13 2
    15    13    14 1
    16     1    15 1
    17     1    16 1
    18     1    17 1
    19     4    18 1
    20     7    19 1
    21     9    20 1
    22     9    21 1
    23    11    22 1
    24    12    23 1
    25    13    24 1
@<TRIPOS>SUBSTRUCTURE
     1 ZYT         1 TEMP              0 ****  ****    0 ROOT
