@<TRIPOS>MOLECULE
ZYT
   24    25     1     0     0
SMALL
bcc


@<TRIPOS>ATOM
      1 CAA         0.1040    0.0840    0.0050 c3        1 ZYT     -0.046000
      2 SAI         0.8940    1.3110    0.9750 ss        1 ZYT     -0.236400
      3 CAL         1.5080    0.4500    2.3020 cc        1 ZYT      0.488800
      4 NAG         2.1370    1.0880    3.3740 na        1 ZYT     -0.277900
      5 NAH         1.4600   -0.9020    2.4900 nd        1 ZYT     -0.730000
      6 CAM         2.0980   -1.1190    3.7160 cd        1 ZYT      0.524600
      7 OAB         2.2910   -2.3330    4.3180 oh        1 ZYT     -0.599300
      8 CAN         2.5360    0.1010    4.2840 cc        1 ZYT     -0.231900
      9 CAC         3.2310    0.3440    5.5630 c3        1 ZYT      0.080200
     10 CAK         4.1290    1.5140    5.5250 cc        1 ZYT     -0.122400
     11 CAF         3.7370    2.8390    5.5960 cd        1 ZYT     -0.176000
     12 CAD         4.8550    3.7260    5.5460 cd        1 ZYT     -0.154000
     13 CAE         6.0440    3.0340    5.4430 cc        1 ZYT     -0.177100
     14 SAJ         5.7990    1.3870    5.4060 ss        1 ZYT      0.048200
     15 HAA1       -0.7180   -0.4250    0.5550 h1        1 ZYT      0.078033
     16 HAA2       -0.3180    0.6360   -0.8680 h1        1 ZYT      0.078033
     17 HAA3        0.8160   -0.6920   -0.3550 h1        1 ZYT      0.078033
     18 HAG         2.3590    2.0480    3.4480 hn        1 ZYT      0.316700
     19 HAB         1.9230   -3.0170    3.7350 ho        1 ZYT      0.435000
     20 HAC1        2.4610    0.4950    6.3730 hc        1 ZYT      0.073200
     21 HAC2        3.8050   -0.5900    5.8210 hc        1 ZYT      0.073200
     22 HAF         2.7050    3.1810    5.6970 ha        1 ZYT      0.152000
     23 HAD         4.7590    4.8120    5.5910 ha        1 ZYT      0.154000
     24 HAE         7.0340    3.4860    5.3920 h4        1 ZYT      0.172000
@<TRIPOS>BOND
     1    1    2 1   
     2    1   15 1   
     3    1   16 1   
     4    1   17 1   
     5    2    3 1   
     6    3    4 1   
     7    3    5 2   
     8    4    8 1   
     9    4   18 1   
    10    5    6 1   
    11    6    7 1   
    12    6    8 2   
    13    7   19 1   
    14    8    9 1   
    15    9   10 1   
    16    9   20 1   
    17    9   21 1   
    18   10   11 2   
    19   10   14 1   
    20   11   12 1   
    21   11   22 1   
    22   12   13 2   
    23   12   23 1   
    24   13   14 1   
    25   13   24 1   
@<TRIPOS>SUBSTRUCTURE
     1 ZYT         1 TEMP              0 ****  ****    0 ROOT
