@<TRIPOS>MOLECULE
ZYU
   26    28     1     0     0
SMALL
bcc


@<TRIPOS>ATOM
      1 CAO          0.0000     0.0000     0.0000 c3         1 ZYU       0.091800
      2 CAN          1.5310     0.0000     0.0000 c3         1 ZYU       0.211900
      3 OAL          2.0030     0.0000     1.3500 os         1 ZYU      -0.412600
      4 CAK          1.5490    -1.1180     2.1190 c3         1 ZYU       0.211900
      5 CAP          0.0180    -1.1290     2.1390 c3         1 ZYU       0.091800
      6 C6          -1.8680    -1.2270     0.7370 ca         1 ZYU       0.589200
      7 N1          -2.5800    -0.3120     0.0880 nb         1 ZYU      -0.704000
      8 C2          -3.8990    -0.3680     0.0570 ca         1 ZYU       0.668900
      9 N3          -4.5800    -1.3210     0.6590 nb         1 ZYU      -0.645000
     10 C4          -3.9530    -2.2800     1.3330 ca         1 ZYU       0.227800
     11 C5          -2.5490    -2.2630     1.3960 ca         1 ZYU      -0.198200
     12 N7          -2.1710    -3.3350     2.1320 nc         1 ZYU      -0.484100
     13 C8          -3.2270    -3.9910     2.5180 cd         1 ZYU       0.229700
     14 N9          -4.3510    -3.3800     2.0490 na         1 ZYU       0.178000
     15 N6          -0.4860    -1.1610     0.7590 nh         1 ZYU      -0.436300
     16 HAO1        -0.3600     0.9100     0.4640 h1         1 ZYU       0.037950
     17 HAO2        -0.3600    -0.0600    -1.0200 h1         1 ZYU       0.037950
     18 HAN1         1.8920     0.8860    -0.5080 h1         1 ZYU       0.014700
     19 HAN2         1.8920    -0.8860    -0.5080 h1         1 ZYU       0.014700
     20 HAK1         1.9230    -1.0340     3.1320 h1         1 ZYU       0.014700
     21 HAK2         1.9100    -2.0350     1.6690 h1         1 ZYU       0.014700
     22 HAP1        -0.3420    -0.2350     2.6340 h1         1 ZYU       0.037950
     23 HAP2        -0.3280    -2.0070     2.6710 h1         1 ZYU       0.037950
     24 H2          -4.4420     0.3980    -0.4840 h5         1 ZYU      -0.000900
     25 H9          -5.2940    -3.6790     2.2010 hn         1 ZYU       0.134700
     26 H8          -3.2130    -4.8910     3.1210 h5         1 ZYU       0.032800
@<TRIPOS>BOND
     1     1     2 1   
     2     1    15 1   
     3     1    16 1   
     4     1    17 1   
     5     2     3 1   
     6     2    18 1   
     7     2    19 1   
     8     3     4 1   
     9     4     5 1   
    10     4    20 1   
    11     4    21 1   
    12     5    15 1   
    13     5    22 1   
    14     5    23 1   
    15     6     7 ar  
    16     6    11 ar  
    17     6    15 1   
    18     7     8 ar  
    19     8     9 ar  
    20     8    24 1   
    21     9    10 ar  
    22    10    11 ar  
    23    10    14 1   
    24    11    12 1   
    25    12    13 2   
    26    13    14 1   
    27    13    26 1   
    28    14    25 1   
@<TRIPOS>SUBSTRUCTURE
     1 ZYU         1 TEMP              0 ****  ****    0 ROOT
