@<TRIPOS>MOLECULE
molecule
   32    34     1     0     0
SMALL
bcc


@<TRIPOS>ATOM
      1 C5           0.0000     0.0000     0.0000 ca         1 ZYV      -0.367800
      2 N7           1.3790     0.0000     0.0000 na         1 ZYV      -0.260300
      3 C8           1.7780     0.0000     1.2930 cc         1 ZYV       0.473700
      4 N9           0.7400     0.0000     2.0820 nd         1 ZYV      -0.652700
      5 C4          -0.3890    -0.0000     1.3500 ca         1 ZYV       0.643300
      6 N3          -1.6940    -0.0020     1.6400 nb         1 ZYV      -0.677000
      7 C2          -2.5930    -0.0020     0.6810 ca         1 ZYV       0.701900
      8 N1          -2.2660    -0.0020    -0.5990 nb         1 ZYV      -0.785000
      9 C6          -0.9920    -0.0060    -0.9820 ca         1 ZYV       0.644200
     10 N6          -0.6570    -0.0120    -2.3260 nh         1 ZYV      -0.728300
     11 CAG         -1.8620    -0.0170    -3.1690 c3         1 ZYV       0.152800
     12 CAF          0.2070     1.1300    -2.6600 c3         1 ZYV       0.126800
     13 CAE          0.6010     1.0510    -4.1370 c3         1 ZYV       0.123400
     14 OAL         -0.5830     1.0160    -4.9390 os         1 ZYV      -0.416600
     15 CAP         -1.4470    -0.0840    -4.6420 c3         1 ZYV       0.113100
     16 CAD         -0.7110    -1.3990    -4.9060 c3         1 ZYV       0.057800
     17 NAA         -0.3130    -1.4620    -6.3190 nz         1 ZYV      -0.806600
     18 H7           1.9730    -0.0000    -0.8050 hn         1 ZYV       0.302700
     19 H8           2.8090    -0.0000     1.6230 h5         1 ZYV       0.092800
     20 H2          -3.6430     0.0010     0.9500 h5         1 ZYV       0.078100
     21 HAG1        -2.4270     0.8910    -2.9950 h1         1 ZYV       0.094200
     22 HAG2        -2.4690    -0.8800    -2.9250 h1         1 ZYV       0.094200
     23 HAF1         1.0990     1.0980    -2.0470 h1         1 ZYV       0.072700
     24 HAF2        -0.3310     2.0530    -2.4790 h1         1 ZYV       0.072700
     25 HAP         -2.3300    -0.0270    -5.2670 h1         1 ZYV       0.104700
     26 HAE1         1.1790     0.1510    -4.3090 h1         1 ZYV       0.059700
     27 HAE2         1.1890     1.9210    -4.4010 h1         1 ZYV       0.059700
     28 HAD1        -1.3650    -2.2320    -4.6780 hx         1 ZYV       0.124700
     29 HAD2         0.1720    -1.4510    -4.2800 hx         1 ZYV       0.124700
     30 HAA1         0.0690    -2.3650    -6.5180 hn         1 ZYV       0.457800
     31 HAA2         0.3760    -0.7600    -6.5030 hn         1 ZYV       0.457800
     32 HAA3        -1.1140    -1.3030    -6.8980 hn         1 ZYV       0.457800
@<TRIPOS>BOND
     1     1     2 1
     2     1     5 ar
     3     1     9 ar
     4     2     3 1
     5     3     4 2
     6     4     5 1
     7     5     6 ar
     8     6     7 ar
     9     7     8 ar
    10     8     9 ar
    11     9    10 1
    12    10    11 1
    13    10    12 1
    14    11    15 1
    15    12    13 1
    16    13    14 1
    17    14    15 1
    18    15    16 1
    19    16    17 1
    20     2    18 1
    21     3    19 1
    22     7    20 1
    23    11    21 1
    24    11    22 1
    25    12    23 1
    26    12    24 1
    27    15    25 1
    28    13    26 1
    29    13    27 1
    30    16    28 1
    31    16    29 1
    32    17    30 1
    33    17    31 1
    34    32    17 1
@<TRIPOS>SUBSTRUCTURE
     1 ZYV         1 TEMP              0 ****  ****    0 ROOT
