@<TRIPOS>MOLECULE
ZYW
   33    35     1     0     0
SMALL
bcc


@<TRIPOS>ATOM
      1 Br           0.0000     0.0000     0.0000 br         1 ZYW      -0.074100
      2 CAM          1.8910     0.0000     0.0000 ca         1 ZYW      -0.108200
      3 CAC          2.5890     0.0000     1.1950 ca         1 ZYW       0.469200
      4 NAJ          3.9060     0.0000     1.2250 nb         1 ZYW      -0.554000
      5 CAP          4.6310    -0.0000     0.1120 ca         1 ZYW       0.280800
      6 NAK          5.9790    -0.0000    -0.1330 na         1 ZYW       0.353200
      7 NAI          6.1710    -0.0010    -1.5200 nc         1 ZYW      -0.599100
      8 CAD          5.0180    -0.0020    -2.1240 cd         1 ZYW       0.408800
      9 CAO          3.9990    -0.0010    -1.1440 ca         1 ZYW      -0.410200
     10 CAN          2.5920    -0.0050    -1.2010 ca         1 ZYW       0.100600
     11 NAQ          1.9240    -0.0120    -2.4190 nh         1 ZYW      -0.377000
     12 CAH          2.2050    -1.2450    -3.1670 c3         1 ZYW       0.117800
     13 CAG          2.2730     1.1730    -3.2170 c3         1 ZYW       0.092800
     14 CAF          1.4720     1.1560    -4.5220 c3         1 ZYW       0.233400
     15 OAL          1.7340    -0.0640    -5.2210 os         1 ZYW      -0.449600
     16 CAR          1.4050    -1.2380    -4.4730 c3         1 ZYW       0.163100
     17 CAE          1.7530    -2.4810    -5.2930 c3         1 ZYW      -0.048200
     18 NAA          0.9850    -2.4730    -6.5460 nz         1 ZYW       0.092400
     19 HAC          2.0390    -0.0000     2.1290 h4         1 ZYW       0.003100
     20 HAK          6.7010     0.0000     0.5600 hn         1 ZYW       0.170700
     21 HAD          4.8660    -0.0020    -3.1960 h4         1 ZYW       0.012800
     22 HAH1         1.9140    -2.1020    -2.5720 h1         1 ZYW       0.037700
     23 HAH2         3.2630    -1.2970    -3.3930 h1         1 ZYW       0.037700
     24 HAG1         3.3330     1.1560    -3.4440 h1         1 ZYW       0.045200
     25 HAG2         2.0320     2.0680    -2.6570 h1         1 ZYW       0.045200
     26 HAR          0.3450    -1.2340    -4.2460 h1         1 ZYW       0.039700
     27 HAF1         0.4150     1.2230    -4.2960 h1         1 ZYW       0.031200
     28 HAF2         1.7700     1.9960    -5.1380 h1         1 ZYW       0.031200
     29 HAE1         2.8130    -2.4790    -5.5200 hx         1 ZYW       0.089200
     30 HAE2         1.5070    -3.3690    -4.7250 hx         1 ZYW       0.089200
     31 HAA1         1.2930    -1.7140    -7.1210 hn         1 ZYW       0.225467
     32 HAA2         1.1270    -3.3370    -7.0300 hn         1 ZYW       0.225467
     33 HAA3         0.0120    -2.3610    -6.3400 hn         1 ZYW       0.225467
@<TRIPOS>BOND
     1     1     2 1   
     2     2     3 ar  
     3     2    10 ar  
     4     3     4 ar  
     5     3    19 1   
     6     4     5 ar  
     7     5     6 1   
     8     5     9 ar  
     9     6     7 1   
    10     6    20 1   
    11     7     8 2   
    12     8     9 1   
    13     8    21 1   
    14     9    10 ar  
    15    10    11 1   
    16    11    12 1   
    17    11    13 1   
    18    12    16 1   
    19    12    22 1   
    20    12    23 1   
    21    13    14 1   
    22    13    24 1   
    23    13    25 1   
    24    14    15 1   
    25    14    27 1   
    26    14    28 1   
    27    15    16 1   
    28    16    17 1   
    29    16    26 1   
    30    17    18 1   
    31    17    29 1   
    32    17    30 1   
    33    18    31 1   
    34    18    32 1   
    35    18    33 1   
@<TRIPOS>SUBSTRUCTURE
     1 ZYW         1 TEMP              0 ****  ****    0 ROOT
