@<TRIPOS>MOLECULE
ZYX
   27    27     1     0     0
SMALL
bcc


@<TRIPOS>ATOM
      1 C1           0.0000     0.0000     0.0000 ca         1 ZYX      -0.228500
      2 C2           1.3950     0.0000     0.0000 ca         1 ZYX       0.039000
      3 C3           2.0930     0.0000     1.2080 ca         1 ZYX      -0.092500
      4 C4           1.3960     0.0000     2.4150 ca         1 ZYX      -0.032300
      5 C5           0.0010     0.0000     2.4160 ca         1 ZYX      -0.092500
      6 C6          -0.6960     0.0000     1.2080 ca         1 ZYX       0.039000
      7 S           -0.8730     0.0000    -1.5120 sy         1 ZYX       0.855200
      8 O1          -2.1930     0.5680    -1.2790 o          1 ZYX      -0.436800
      9 O2          -0.0130     0.5660    -2.5420 o          1 ZYX      -0.436800
     10 N1          -1.0360    -1.6770    -1.7940 nz         1 ZYX      -0.109500
     11 C7           2.1410    -0.0000     3.7080 c3         1 ZYX       0.024900
     12 C8           2.4480    -1.4060     4.2380 c3         1 ZYX      -0.066200
     13 N2           3.1500    -1.3750     5.4940 nz         1 ZYX       0.116400
     14 H2           1.9370    -0.0000    -0.9380 ha         1 ZYX       0.140000
     15 H3           3.1760     0.0000     1.2080 ha         1 ZYX       0.133000
     16 H5          -0.5410     0.0010     3.3540 ha         1 ZYX       0.133000
     17 H6          -1.7800     0.0000     1.2090 ha         1 ZYX       0.140000
     18 HN11        -0.1280    -2.0950    -1.8570 hn         1 ZYX       0.309133
     19 HN12        -1.5310    -1.8250    -2.6510 hn         1 ZYX       0.309133
     20 H71          3.0770     0.5280     3.5670 hc         1 ZYX       0.048700
     21 H72          1.5520     0.5280     4.4470 hc         1 ZYX       0.048700
     22 H81          3.0540    -1.9310     3.5100 hx         1 ZYX       0.083700
     23 H82          1.5150    -1.9410     4.3710 hx         1 ZYX       0.083700
     24 HN21         2.5910    -0.9040     6.1770 hn         1 ZYX       0.227467
     25 HN22         4.0170    -0.8890     5.3790 hn         1 ZYX       0.227467
     26 H13         -1.5330    -2.0960    -1.0330 hn         1 ZYX       0.309133
     27 H23          3.3290    -2.3110     5.7990 hn         1 ZYX       0.227467
@<TRIPOS>BOND
     1     1     2 ar  
     2     1     6 ar  
     3     1     7 1   
     4     2     3 ar  
     5     2    14 1   
     6     3     4 ar  
     7     3    15 1   
     8     4     5 ar  
     9     4    11 1   
    10     5     6 ar  
    11     5    16 1   
    12     6    17 1   
    13     7     8 2   
    14     7     9 2   
    15     7    10 1   
    16    10    18 1   
    17    10    19 1   
    18    10    26 1   
    19    11    12 1   
    20    11    20 1   
    21    11    21 1   
    22    12    13 1   
    23    12    22 1   
    24    12    23 1   
    25    13    24 1   
    26    13    25 1   
    27    13    27 1   
@<TRIPOS>SUBSTRUCTURE
     1 ZYX         1 TEMP              0 ****  ****    0 ROOT
