@<TRIPOS>MOLECULE
molecule
   27    27     1     0     0
SMALL
bcc


@<TRIPOS>ATOM
      1 C1           0.0000     0.0000     0.0000 ca         1 ZYX      -0.333500
      2 C2           1.3950     0.0000     0.0000 ca         1 ZYX      -0.009000
      3 C3           2.0930     0.0000     1.2080 ca         1 ZYX      -0.119500
      4 C4           1.3960     0.0000     2.4150 ca         1 ZYX      -0.021300
      5 C5           0.0010     0.0000     2.4160 ca         1 ZYX      -0.119500
      6 C6          -0.6960     0.0000     1.2080 ca         1 ZYX      -0.009000
      7 S           -0.8730     0.0000    -1.5120 sy         1 ZYX       1.137200
      8 O1          -2.1930     0.5680    -1.2790 o          1 ZYX      -0.455800
      9 O2          -0.0130     0.5660    -2.5420 o          1 ZYX      -0.455800
     10 N1          -1.0360    -1.6770    -1.7940 nz         1 ZYX      -0.783500
     11 C7           2.1410    -0.0000     3.7080 c3         1 ZYX      -0.068100
     12 C8           2.4480    -1.4060     4.2380 c3         1 ZYX       0.084800
     13 N2           3.1500    -1.3750     5.4940 nz         1 ZYX      -0.796600
     14 H2           1.9370    -0.0000    -0.9380 ha         1 ZYX       0.175000
     15 H3           3.1760     0.0000     1.2080 ha         1 ZYX       0.167000
     16 H5          -0.5410     0.0010     3.3540 ha         1 ZYX       0.167000
     17 H6          -1.7800     0.0000     1.2090 ha         1 ZYX       0.175000
     18 HN11        -0.1280    -2.0950    -1.8570 hn         1 ZYX       0.488467
     19 HN12        -1.5310    -1.8250    -2.6510 hn         1 ZYX       0.488467
     20 H71          3.0770     0.5280     3.5670 hc         1 ZYX       0.087200
     21 H72          1.5520     0.5280     4.4470 hc         1 ZYX       0.087200
     22 H81          3.0540    -1.9310     3.5100 hx         1 ZYX       0.112200
     23 H82          1.5150    -1.9410     4.3710 hx         1 ZYX       0.112200
     24 HN21         2.5910    -0.9040     6.1770 hn         1 ZYX       0.467467
     25 HN22         4.0170    -0.8890     5.3790 hn         1 ZYX       0.467467
     26 H13         -1.5330    -2.0960    -1.0330 hn         1 ZYX       0.488467
     27 H23          3.3290    -2.3110     5.7990 hn         1 ZYX       0.467467
@<TRIPOS>BOND
     1     1     6 ar
     2     1     2 ar
     3     1     7 1
     4     2     3 ar
     5     2    14 1
     6     3     4 ar
     7     3    15 1
     8     4    11 1
     9     4     5 ar
    10     5     6 ar
    11     5    16 1
    12     6    17 1
    13     7    10 1
    14     7     8 2
    15     7     9 2
    16    10    18 1
    17    10    19 1
    18    11    12 1
    19    11    20 1
    20    11    21 1
    21    12    13 1
    22    12    22 1
    23    12    23 1
    24    13    24 1
    25    13    25 1
    26    26    10 1
    27    27    13 1
@<TRIPOS>SUBSTRUCTURE
     1 ZYX         1 TEMP              0 ****  ****    0 ROOT
