@<TRIPOS>MOLECULE
molecule
   60    63     1     0     0
SMALL
bcc


@<TRIPOS>ATOM
      1 ND           0.0000     0.0000     0.0000 nh         1 ZYY      -0.655500
      2 NE           2.1020     0.0000     4.7400 n          1 ZYY      -0.514800
      3 NF          -2.0200    -2.8820     0.1660 n          1 ZYY      -0.120800
      4 NG           0.6820    -0.9300     2.5690 na         1 ZYY      -0.020100
      5 CAA          2.2440     2.0060     6.1520 c3         1 ZYY      -0.112100
      6 CAB          4.3030     0.8560     5.3150 c3         1 ZYY      -0.112100
      7 CAC          0.1550     1.2880     2.4280 c3         1 ZYY      -0.130100
      8 CAD          1.4830     0.0000     0.0000 c3         1 ZYY       0.098100
      9 CAE         -0.1070     0.1480    -2.7750 c3         1 ZYY      -0.233300
     10 OAH         -1.7630     1.2730    -0.7630 o          1 ZYY      -0.565800
     11 OAI          0.5910     2.1000    -1.1680 o          1 ZYY      -0.565800
     12 CAL         -1.7940    -4.4030    -4.1200 ca         1 ZYY      -0.178500
     13 CAM         -1.2190    -6.2780    -2.6720 ca         1 ZYY      -0.178500
     14 CAN         -2.3720    -3.7260    -3.0520 ca         1 ZYY      -0.075000
     15 CAO         -1.8050    -5.6130    -1.5930 ca         1 ZYY      -0.075000
     16 CAP         -2.9980    -3.6210    -0.6400 c3         1 ZYY       0.160300
     17 CAQ          2.1200     0.8550     3.5560 c3         1 ZYY       0.092000
     18 NAR         -1.5650    -1.8030    -0.2490 nc         1 ZYY      -0.451300
     19 CAS          1.6010    -1.3470     4.7250 c          1 ZYY       0.757100
     20 CAT         -1.2160    -5.6550    -3.9150 ca         1 ZYY       0.149900
     21 CAU         -2.3660    -4.3390    -1.8030 ca         1 ZYY      -0.149300
     22 CAV         -0.0540    -2.8200     3.4200 cc         1 ZYY       0.181100
     23 CAW          0.8140    -1.7490     3.6590 cd         1 ZYY      -0.173900
     24 CAX         -0.6710    -1.0600     0.4770 cd         1 ZYY       0.534800
     25 CAY         -1.6140    -3.4080     1.4230 c          1 ZYY       0.692100
     26 CAZ         -0.6870    -2.6890     2.1900 cc         1 ZYY      -0.227600
     27 CBA         -0.2170    -1.5120     1.6920 cd         1 ZYY      -0.095200
     28 CBC          1.3580     0.3450     2.4010 c3         1 ZYY      -0.036000
     29 SBH         -0.3250     0.9230    -1.1830 s6         1 ZYY       1.126900
     30 HAA          2.5700     2.3290     7.1340 hc         1 ZYY       0.043200
     31 HAAA         1.1650     1.9200     6.1400 hc         1 ZYY       0.043200
     32 HAAB         2.5570     2.7320     5.4110 hc         1 ZYY       0.043200
     33 HAB          4.9670     0.9540     6.1650 hc         1 ZYY       0.043200
     34 HABA         4.3760     1.7430     4.6960 hc         1 ZYY       0.043200
     35 HABB         4.5860    -0.0140     4.7340 hc         1 ZYY       0.043200
     36 HAC         -0.6360     0.8830     1.8080 hc         1 ZYY       0.062700
     37 HACA         0.4490     2.2600     2.0500 hc         1 ZYY       0.062700
     38 HACB        -0.2020     1.3900     3.4460 hc         1 ZYY       0.062700
     39 HAD          1.8440     0.9810     0.2830 h1         1 ZYY       0.085367
     40 HADA         1.8440    -0.2450    -0.9920 h1         1 ZYY       0.085367
     41 HADB         1.8440    -0.7360     0.7080 h1         1 ZYY       0.085367
     42 HAE          0.5600     0.7500    -3.3810 h1         1 ZYY       0.107367
     43 HAEA         0.3180    -0.8390    -2.6410 h1         1 ZYY       0.107367
     44 HAEB        -1.0670     0.0640    -3.2690 h1         1 ZYY       0.107367
     45 HAL         -1.7820    -3.9530    -5.1060 ha         1 ZYY       0.152500
     46 HAM         -0.7780    -7.2600    -2.5440 ha         1 ZYY       0.152500
     47 HAN         -2.8190    -2.7490    -3.1900 ha         1 ZYY       0.152500
     48 HAO         -1.8210    -6.0660    -0.6100 ha         1 ZYY       0.152500
     49 HAP         -3.7370    -2.9250    -1.0180 h1         1 ZYY       0.088200
     50 HAPA        -3.4940    -4.3490    -0.0080 h1         1 ZYY       0.088200
     51 HAQ          3.1510     0.9870     3.2490 h1         1 ZYY       0.054200
     52 HAQA         1.7140     1.8220     3.8300 h1         1 ZYY       0.054200
     53 HBC          1.9100     0.4100     1.4710 h1         1 ZYY       0.131700
     54 CBB          2.8710     0.6410     5.8290 c3         1 ZYY       0.116700
     55 OAF          1.5880    -2.0460     5.7390 o          1 ZYY      -0.597500
     56 OAG         -2.0790    -4.4780     1.8260 o          1 ZYY      -0.603500
     57 OAJ         -0.2380    -3.8680     4.2680 oh         1 ZYY      -0.477100
     58 FAK         -0.6530    -6.2880    -4.9460 f          1 ZYY      -0.135900
     59 HOAJ        -0.9700    -3.6880     4.8350 ho         1 ZYY       0.434000
     60 HBB          2.8770     0.0100     6.7090 h1         1 ZYY       0.088700
@<TRIPOS>BOND
     1     1     8 1
     2     1    24 1
     3     1    29 1
     4     2    17 1
     5     2    19 1
     6     2    54 1
     7     3    16 1
     8     3    18 1
     9     3    25 1
    10     4    23 1
    11     4    27 1
    12     4    28 1
    13     5    54 1
    14     6    54 1
    15     7    28 1
    16     9    29 1
    17    55    19 2
    18    56    25 2
    19    10    29 2
    20    11    29 2
    21    57    22 1
    22    58    20 1
    23    12    14 ar
    24    12    20 ar
    25    13    15 ar
    26    13    20 ar
    27    14    21 ar
    28    15    21 ar
    29    16    21 1
    30    17    28 1
    31    18    24 2
    32    19    23 1
    33    22    23 2
    34    22    26 1
    35    24    27 1
    36    25    26 1
    37    26    27 2
    38     5    30 1
    39     5    31 1
    40     5    32 1
    41     6    33 1
    42     6    34 1
    43     6    35 1
    44     7    36 1
    45     7    37 1
    46     7    38 1
    47     8    39 1
    48     8    40 1
    49     8    41 1
    50     9    42 1
    51     9    43 1
    52     9    44 1
    53    57    59 1
    54    12    45 1
    55    13    46 1
    56    14    47 1
    57    15    48 1
    58    16    49 1
    59    16    50 1
    60    17    51 1
    61    17    52 1
    62    54    60 1
    63    28    53 1
@<TRIPOS>SUBSTRUCTURE
     1 ZYY         1 TEMP              0 ****  ****    0 ROOT
