@<TRIPOS>MOLECULE
ZYZ
   47    47     1     0     0
SMALL
bcc


@<TRIPOS>ATOM
      1 SE           0.0000     0.0000     0.0000 s4         1 ZYZ       0.051700
      2 C1           1.9610     0.0000     0.0000 c3         1 ZYZ       0.296200
      3 N1           5.9030    -1.2510     4.8670 ns         1 ZYZ      -0.154900
      4 C2           2.4630     0.0000     1.4210 ca         1 ZYZ      -0.095300
      5 C3           2.6930    -1.1960     2.0720 ca         1 ZYZ      -0.078000
      6 C4           3.1540    -1.1960     3.3750 ca         1 ZYZ      -0.092000
      7 C5           3.3840     0.0010     4.0280 ca         1 ZYZ      -0.097300
      8 O5           7.8230    -0.3030     4.2750 o          1 ZYZ      -0.664000
      9 C6           3.1530     1.1980     3.3750 ca         1 ZYZ      -0.092000
     10 O6           7.5750    -2.4490     3.7660 os         1 ZYZ      -0.414900
     11 C7           2.6980     1.1980     2.0700 ca         1 ZYZ      -0.078000
     12 C8           3.8850     0.0010     5.4490 c3         1 ZYZ       0.024900
     13 C9           5.4150     0.0010     5.4500 c3         1 ZYZ      -0.011300
     14 C10          5.9160     0.1260     6.8660 c          1 ZYZ       0.677100
     15 C12          6.1090     1.2530     8.9560 c3         1 ZYZ       0.270700
     16 C13          8.9010    -2.4270     3.1740 c3         1 ZYZ       0.195800
     17 C14          9.9290    -2.0400     4.2400 c3         1 ZYZ      -0.029767
     18 C15          9.2360    -3.8140     2.6210 c3         1 ZYZ      -0.029767
     19 C16          8.9360    -1.4030     2.0370 c3         1 ZYZ      -0.029767
     20 H1           2.3220    -0.8840    -0.5110 h1         1 ZYZ       0.051200
     21 H1A          2.3220     0.8840    -0.5110 h1         1 ZYZ       0.051200
     22 HN1          5.3510    -2.0830     4.9360 hn         1 ZYZ       0.182500
     23 H3           2.5130    -2.1350     1.5620 ha         1 ZYZ       0.114500
     24 H4           3.3340    -2.1350     3.8860 ha         1 ZYZ       0.109000
     25 H6           3.3350     2.1360     3.8850 ha         1 ZYZ       0.109000
     26 H7           2.5180     2.1350     1.5580 ha         1 ZYZ       0.114500
     27 H8           3.5230     0.8850     5.9590 hc         1 ZYZ       0.035200
     28 H8A          3.5230    -0.8840     5.9590 hc         1 ZYZ       0.035200
     29 H9           5.7760     0.8380     4.8640 h1         1 ZYZ       0.080700
     30 H12          5.7370     2.1430     9.4500 h1         1 ZYZ       0.002367
     31 H12A         5.7850     0.3750     9.5020 h1         1 ZYZ       0.002367
     32 H12B         7.1910     1.2820     8.9270 h1         1 ZYZ       0.002367
     33 H14          9.6360    -2.4620     5.1940 hc         1 ZYZ       0.019256
     34 H14A         9.9760    -0.9610     4.3220 hc         1 ZYZ       0.019256
     35 H14B        10.9030    -2.4240     3.9590 hc         1 ZYZ       0.019256
     36 H15          8.5060    -4.0890     1.8690 hc         1 ZYZ       0.019256
     37 H15A         9.2150    -4.5390     3.4270 hc         1 ZYZ       0.019256
     38 H15B        10.2230    -3.7980     2.1760 hc         1 ZYZ       0.019256
     39 H16          9.0730    -0.4110     2.4490 hc         1 ZYZ       0.019256
     40 H16A         8.0020    -1.4400     1.4900 hc         1 ZYZ       0.019256
     41 H16B         9.7560    -1.6340     1.3680 hc         1 ZYZ       0.019256
     42 O51         -0.3450    -0.0000    -1.7760 oh         1 ZYZ      -0.457800
     43 O61         -0.2960    -1.4820     0.3600 o          1 ZYZ      -0.385200
     44 H23         -1.1500     0.4630    -1.9410 ho         1 ZYZ       0.420000
     45 C11          7.1270    -1.2990     4.3010 c          1 ZYZ       0.698100
     46 O3           6.6100    -0.7430     7.3390 o          1 ZYZ      -0.574000
     47 O4           5.5910     1.2000     7.6010 os         1 ZYZ      -0.414900
@<TRIPOS>BOND
     1     1     2 1   
     2     1    42 1   
     3     1    43 2   
     4     2     4 1   
     5     2    20 1   
     6     2    21 1   
     7     3    13 1   
     8     3    22 1   
     9     3    45 1   
    10     4     5 ar  
    11     4    11 ar  
    12     5     6 ar  
    13     5    23 1   
    14     6     7 ar  
    15     6    24 1   
    16     7     9 ar  
    17     7    12 1   
    18     8    45 2   
    19     9    11 ar  
    20     9    25 1   
    21    10    16 1   
    22    10    45 1   
    23    11    26 1   
    24    12    13 1   
    25    12    27 1   
    26    12    28 1   
    27    13    14 1   
    28    13    29 1   
    29    14    46 2   
    30    14    47 1   
    31    15    30 1   
    32    15    31 1   
    33    15    32 1   
    34    15    47 1   
    35    16    17 1   
    36    16    18 1   
    37    16    19 1   
    38    17    33 1   
    39    17    34 1   
    40    17    35 1   
    41    18    36 1   
    42    18    37 1   
    43    18    38 1   
    44    19    39 1   
    45    19    40 1   
    46    19    41 1   
    47    42    44 1   
@<TRIPOS>SUBSTRUCTURE
     1 ZYZ         1 TEMP              0 ****  ****    0 ROOT
