@<TRIPOS>MOLECULE
molecule
   25    26     1     0     0
SMALL
bcc


@<TRIPOS>ATOM
      1 C7           0.0000     0.0000     0.0000 ca         1 ZZ0      -0.161000
      2 C9           1.3810     0.0000     0.0000 ca         1 ZZ0      -0.110000
      3 C5           2.0740     0.0000     1.1980 ca         1 ZZ0      -0.021600
      4 Cl1          3.8100    -0.0000     1.1960 cl         1 ZZ0      -0.158400
      5 C10          1.3840     0.0010     2.3980 ca         1 ZZ0      -0.110000
      6 C8           0.0040     0.0010     2.4040 ca         1 ZZ0      -0.161000
      7 C4          -0.6940     0.0010     1.2030 ca         1 ZZ0       0.188600
      8 N1          -2.0920     0.0020     1.2050 nu         1 ZZ0      -0.761300
      9 C1          -2.7830    -0.6080     2.2370 ca         1 ZZ0       0.694200
     10 N2          -2.1170    -1.1350     3.2530 nb         1 ZZ0      -0.790000
     11 C11         -2.7360    -1.7250     4.2570 ca         1 ZZ0       0.433200
     12 C12         -4.1160    -1.8210     4.2920 ca         1 ZZ0      -0.335300
     13 C6          -4.8630    -1.2880     3.2570 ca         1 ZZ0      -0.028000
     14 C2          -4.1870    -0.6600     2.2040 ca         1 ZZ0      -0.275900
     15 C3          -4.9330    -0.0700     1.0790 c          1 ZZ0       0.899200
     16 O2          -4.3350     0.3530     0.1090 o          1 ZZ0      -0.832800
     17 O1          -6.2780    -0.0010     1.1250 o          1 ZZ0      -0.832800
     18 H7          -0.5420    -0.0000    -0.9380 ha         1 ZZ0       0.161500
     19 H9           1.9230    -0.0010    -0.9380 ha         1 ZZ0       0.128000
     20 H10          1.9290     0.0010     3.3350 ha         1 ZZ0       0.128000
     21 H8          -0.5340     0.0020     3.3440 ha         1 ZZ0       0.161500
     22 H1          -2.5930     0.4730     0.4780 hn         1 ZZ0       0.514800
     23 H11         -2.1530    -2.1440     5.0690 h4         1 ZZ0      -0.004900
     24 H12         -4.5980    -2.4190     5.0560 ha         1 ZZ0       0.114000
     25 H6          -5.9060    -1.5590     3.1460 ha         1 ZZ0       0.157000
@<TRIPOS>BOND
     1     1     2 ar
     2     1     7 ar
     3     2     3 ar
     4     3     4 1
     5     3     5 ar
     6     5     6 ar
     7     6     7 ar
     8     7     8 1
     9     8     9 1
    10     9    10 ar
    11     9    14 ar
    12    10    11 ar
    13    11    12 ar
    14    12    13 ar
    15    13    14 ar
    16    14    15 1
    17    15    16 1
    18    15    17 1
    19     1    18 1
    20     2    19 1
    21     5    20 1
    22     6    21 1
    23     8    22 1
    24    11    23 1
    25    12    24 1
    26    13    25 1
@<TRIPOS>SUBSTRUCTURE
     1 ZZ0         1 TEMP              0 ****  ****    0 ROOT
