@<TRIPOS>MOLECULE
ZZ0
   25    26     1     0     0
SMALL
bcc


@<TRIPOS>ATOM
      1 C7           0.0000     0.0000     0.0000 ca         1 ZZ0      -0.148000
      2 C9           1.3810     0.0000     0.0000 ca         1 ZZ0      -0.083500
      3 C5           2.0740     0.0000     1.1980 ca         1 ZZ0      -0.077600
      4 Cl1          3.8100    -0.0000     1.1960 cl         1 ZZ0      -0.086400
      5 C10          1.3840     0.0010     2.3980 ca         1 ZZ0      -0.083500
      6 C8           0.0040     0.0010     2.4040 ca         1 ZZ0      -0.148000
      7 C4          -0.6940     0.0010     1.2030 ca         1 ZZ0       0.049600
      8 N1          -2.0920     0.0020     1.2050 nu         1 ZZ0      -0.353300
      9 C1          -2.7830    -0.6080     2.2370 ca         1 ZZ0       0.517200
     10 N2          -2.1170    -1.1350     3.2530 nb         1 ZZ0      -0.685000
     11 C11         -2.7360    -1.7250     4.2570 ca         1 ZZ0       0.420200
     12 C12         -4.1160    -1.8210     4.2920 ca         1 ZZ0      -0.321300
     13 C6          -4.8630    -1.2880     3.2570 ca         1 ZZ0       0.011000
     14 C2          -4.1870    -0.6600     2.2040 ca         1 ZZ0      -0.286900
     15 C3          -4.9330    -0.0700     1.0790 c          1 ZZ0       0.997200
     16 O2          -4.3350     0.3530     0.1090 o          1 ZZ0      -0.876300
     17 O1          -6.2780    -0.0010     1.1250 o          1 ZZ0      -0.876300
     18 H7          -0.5420    -0.0000    -0.9380 ha         1 ZZ0       0.137500
     19 H9           1.9230    -0.0010    -0.9380 ha         1 ZZ0       0.100000
     20 H10          1.9290     0.0010     3.3350 ha         1 ZZ0       0.100000
     21 H8          -0.5340     0.0020     3.3440 ha         1 ZZ0       0.137500
     22 H1          -2.5930     0.4730     0.4780 hn         1 ZZ0       0.376800
     23 H11         -2.1530    -2.1440     5.0690 h4         1 ZZ0      -0.043900
     24 H12         -4.5980    -2.4190     5.0560 ha         1 ZZ0       0.097000
     25 H6          -5.9060    -1.5590     3.1460 ha         1 ZZ0       0.126000
@<TRIPOS>BOND
     1     1     2 ar  
     2     1     7 ar  
     3     1    18 1   
     4     2     3 ar  
     5     2    19 1   
     6     3     4 1   
     7     3     5 ar  
     8     5     6 ar  
     9     5    20 1   
    10     6     7 ar  
    11     6    21 1   
    12     7     8 1   
    13     8     9 1   
    14     8    22 1   
    15     9    10 ar  
    16     9    14 ar  
    17    10    11 ar  
    18    11    12 ar  
    19    11    23 1   
    20    12    13 ar  
    21    12    24 1   
    22    13    14 ar  
    23    13    25 1   
    24    14    15 1   
    25    15    16 1   
    26    15    17 1   
@<TRIPOS>SUBSTRUCTURE
     1 ZZ0         1 TEMP              0 ****  ****    0 ROOT
