@<TRIPOS>MOLECULE
ZZ2
   26    26     1     0     0
SMALL
bcc


@<TRIPOS>ATOM
      1 N2           0.0000     0.0000     0.0000 nv         1 ZZ2      -0.640500
      2 C3           1.3840     0.0000     0.0000 ca         1 ZZ2       0.754900
      3 N3           2.0290     0.0000     1.1570 nb         1 ZZ2      -0.723000
      4 C4           3.3570     0.0000     1.1920 ca         1 ZZ2       0.665600
      5 C5           4.0640    -0.0000    -0.0090 ca         1 ZZ2      -0.383600
      6 C2           3.3540     0.0010    -1.1940 ca         1 ZZ2       0.448600
      7 C1           4.0790    -0.0000    -2.5160 c3         1 ZZ2      -0.043400
      8 N1           2.0310    -0.0060    -1.1560 nb         1 ZZ2      -0.665000
      9 O1           4.0120     0.0010     2.3780 os         1 ZZ2      -0.414100
     10 C6           3.2130     0.0020     3.5620 c3         1 ZZ2       0.210400
     11 C7           4.1230     0.0020     4.7920 c3         1 ZZ2       0.203400
     12 O2           4.8640     1.2230     4.8350 os         1 ZZ2      -0.410600
     13 C8           5.7500     1.3260     5.9520 c3         1 ZZ2       0.254700
     14 H21N        -0.5000     0.8670    -0.0090 hn         1 ZZ2       0.280300
     15 H22N        -0.5000    -0.8670    -0.0040 hn         1 ZZ2       0.280300
     16 H5           5.1480     0.0000    -0.0130 ha         1 ZZ2       0.136000
     17 H11C         3.3560     0.0070    -3.3240 hc         1 ZZ2       0.017367
     18 H12C         4.6940    -0.8890    -2.5900 hc         1 ZZ2       0.017367
     19 H13C         4.7060     0.8800    -2.5850 hc         1 ZZ2       0.017367
     20 H61C         2.5870    -0.8830     3.5760 h1         1 ZZ2       0.017700
     21 H62C         2.5870     0.8860     3.5750 h1         1 ZZ2       0.017700
     22 H71C         4.8090    -0.8350     4.7340 h1         1 ZZ2      -0.000800
     23 H72C         3.5200    -0.0860     5.6870 h1         1 ZZ2      -0.000800
     24 H81C         6.4680     0.5160     5.9200 h1         1 ZZ2      -0.013300
     25 H82C         5.1800     1.2660     6.8720 h1         1 ZZ2      -0.013300
     26 H83C         6.2720     2.2740     5.9130 h1         1 ZZ2      -0.013300
@<TRIPOS>BOND
     1     1     2 1   
     2     1    14 1   
     3     1    15 1   
     4     2     3 ar  
     5     2     8 ar  
     6     3     4 ar  
     7     4     5 ar  
     8     4     9 1   
     9     5     6 ar  
    10     5    16 1   
    11     6     7 1   
    12     6     8 ar  
    13     7    17 1   
    14     7    18 1   
    15     7    19 1   
    16     9    10 1   
    17    10    11 1   
    18    10    20 1   
    19    10    21 1   
    20    11    12 1   
    21    11    22 1   
    22    11    23 1   
    23    12    13 1   
    24    13    24 1   
    25    13    25 1   
    26    13    26 1   
@<TRIPOS>SUBSTRUCTURE
     1 ZZ2         1 TEMP              0 ****  ****    0 ROOT
