@<TRIPOS>MOLECULE
ZZ3
   18    18     1     0     0
SMALL
bcc


@<TRIPOS>ATOM
      1 N5           0.0000     0.0000     0.0000 nv         1 ZZ3      -0.475500
      2 C2           1.3800     0.0000     0.0000 ca         1 ZZ3       0.748900
      3 N4           2.0440     0.0000     1.1510 nb         1 ZZ3      -0.780000
      4 N1           2.0460    -0.0060    -1.1520 nb         1 ZZ3      -0.755000
      5 C3           3.3680    -0.0070    -1.1530 ca         1 ZZ3       0.691300
      6 C8           4.1180    -0.0130    -2.4600 c3         1 ZZ3      -0.034400
      7 N3           4.0330    -0.0020    -0.0110 nb         1 ZZ3      -0.703000
      8 C4           3.3730    -0.0010     1.1460 ca         1 ZZ3       0.822300
      9 S1           4.2610    -0.0020     2.6680 ss         1 ZZ3      -0.368400
     10 C6           2.8800    -0.0010     3.8370 c3         1 ZZ3       0.113000
     11 H51N        -0.5000    -0.0990    -0.8610 hn         1 ZZ3       0.277300
     12 H52N        -0.5000     0.0900     0.8620 hn         1 ZZ3       0.277300
     13 H61C         2.2980    -0.9050     3.7090 h1         1 ZZ3       0.039367
     14 H62C         3.2640     0.0410     4.8490 h1         1 ZZ3       0.039367
     15 H63C         2.2520     0.8620     3.6530 h1         1 ZZ3       0.039367
     16 H81C         3.4860     0.3900    -3.2410 hc         1 ZZ3       0.022700
     17 H82C         4.3980    -1.0290    -2.7110 hc         1 ZZ3       0.022700
     18 H83C         5.0100     0.5950    -2.3670 hc         1 ZZ3       0.022700
@<TRIPOS>BOND
     1     1     2 1   
     2     1    11 1   
     3     1    12 1   
     4     2     3 ar  
     5     2     4 ar  
     6     3     8 ar  
     7     4     5 ar  
     8     5     6 1   
     9     5     7 ar  
    10     6    16 1   
    11     6    17 1   
    12     6    18 1   
    13     7     8 ar  
    14     8     9 1   
    15     9    10 1   
    16    10    13 1   
    17    10    14 1   
    18    10    15 1   
@<TRIPOS>SUBSTRUCTURE
     1 ZZ3         1 TEMP              0 ****  ****    0 ROOT
