@<TRIPOS>MOLECULE
ZZ4
   34    36     1     0     0
SMALL
bcc


@<TRIPOS>ATOM
      1 Cl1          0.0000     0.0000     0.0000 cl         1 ZZ4      -0.019400
      2 C2           1.7350     0.0000     0.0000 ca         1 ZZ4      -0.015600
      3 C1           2.4250     0.0000     1.2020 ca         1 ZZ4      -0.112000
      4 C5           3.8040     0.0010     1.2090 ca         1 ZZ4      -0.042000
      5 C3           2.4250    -0.0060    -1.1990 ca         1 ZZ4      -0.110000
      6 C4           3.8070    -0.0050    -1.2050 ca         1 ZZ4       0.004400
      7 Cl2          4.6710    -0.0130    -2.7110 cl         1 ZZ4       0.001600
      8 C6           4.5060     0.0010     0.0040 cp         1 ZZ4      -0.152500
      9 C7           5.9850     0.0030     0.0050 cp         1 ZZ4       0.553800
     10 N1           6.6640    -0.8520    -0.7540 nb         1 ZZ4      -0.673000
     11 C9           6.7040     0.9160     0.8090 ca         1 ZZ4      -0.220200
     12 C10          8.1040     0.8710     0.7700 ca         1 ZZ4       0.494200
     13 N3           8.6960    -0.0140    -0.0100 nb         1 ZZ4      -0.684000
     14 C8           7.9880    -0.8540    -0.7550 ca         1 ZZ4       0.719900
     15 N2           8.6550    -1.7590    -1.5580 nv         1 ZZ4      -0.508500
     16 N4           6.0530     1.8150     1.6000 ne         1 ZZ4      -0.149400
     17 N5           6.7240     2.7050     2.2500 nf         1 ZZ4      -0.187400
     18 C13          6.0820     3.5420     3.1200 ca         1 ZZ4       0.065400
     19 C14          6.8170     4.4340     3.9070 ca         1 ZZ4      -0.073000
     20 C15          6.1630     5.2750     4.7820 ca         1 ZZ4      -0.109500
     21 C16          4.7840     5.2370     4.8860 ca         1 ZZ4      -0.080000
     22 C11          4.0510     4.3560     4.1110 ca         1 ZZ4      -0.109500
     23 C12          4.6900     3.5130     3.2260 ca         1 ZZ4      -0.073000
     24 H1           1.8790    -0.0000     2.1380 ha         1 ZZ4       0.118000
     25 H3           1.8810    -0.0060    -2.1360 ha         1 ZZ4       0.127000
     26 H5           4.3410     0.0030     2.1500 ha         1 ZZ4       0.121000
     27 H10          8.6930     1.5530     1.3720 h4         1 ZZ4       0.006100
     28 H21N         9.5120    -1.4960    -2.0040 hn         1 ZZ4       0.277800
     29 H22N         8.2710    -2.6710    -1.7100 hn         1 ZZ4       0.277800
     30 H14          7.8970     4.4660     3.8270 ha         1 ZZ4       0.119500
     31 H12          4.1140     2.8240     2.6200 ha         1 ZZ4       0.119500
     32 H15          6.7310     5.9670     5.3920 ha         1 ZZ4       0.105500
     33 H16          4.2760     5.8980     5.5770 ha         1 ZZ4       0.103000
     34 H11          2.9710     4.3330     4.1950 ha         1 ZZ4       0.105500
@<TRIPOS>BOND
     1     1     2 1   
     2     2     3 ar  
     3     2     5 ar  
     4     3     4 ar  
     5     3    24 1   
     6     4     8 ar  
     7     4    26 1   
     8     5     6 ar  
     9     5    25 1   
    10     6     7 1   
    11     6     8 ar  
    12     8     9 1   
    13     9    10 ar  
    14     9    11 ar  
    15    10    14 ar  
    16    11    12 ar  
    17    11    16 1   
    18    12    13 ar  
    19    12    27 1   
    20    13    14 ar  
    21    14    15 1   
    22    15    28 1   
    23    15    29 1   
    24    16    17 2   
    25    17    18 1   
    26    18    19 ar  
    27    18    23 ar  
    28    19    20 ar  
    29    19    30 1   
    30    20    21 ar  
    31    20    32 1   
    32    21    22 ar  
    33    21    33 1   
    34    22    23 ar  
    35    22    34 1   
    36    23    31 1   
@<TRIPOS>SUBSTRUCTURE
     1 ZZ4         1 TEMP              0 ****  ****    0 ROOT
