@<TRIPOS>MOLECULE
molecule
   34    36     1     0     0
SMALL
bcc


@<TRIPOS>ATOM
      1 Cl1          0.0000     0.0000     0.0000 cl         1 ZZ4      -0.097400
      2 C2           1.7350     0.0000     0.0000 ca         1 ZZ4       0.048400
      3 C1           2.4250     0.0000     1.2020 ca         1 ZZ4      -0.135000
      4 C5           3.8040     0.0010     1.2090 ca         1 ZZ4      -0.066000
      5 C3           2.4250    -0.0060    -1.1990 ca         1 ZZ4      -0.129000
      6 C4           3.8070    -0.0050    -1.2050 ca         1 ZZ4       0.071400
      7 Cl2          4.6710    -0.0130    -2.7110 cl         1 ZZ4      -0.075400
      8 C6           4.5060     0.0010     0.0040 cp         1 ZZ4      -0.142500
      9 C7           5.9850     0.0030     0.0050 cp         1 ZZ4       0.594800
     10 N1           6.6640    -0.8520    -0.7540 nb         1 ZZ4      -0.769000
     11 C9           6.7040     0.9160     0.8090 ca         1 ZZ4      -0.187200
     12 C10          8.1040     0.8710     0.7700 ca         1 ZZ4       0.508200
     13 N3           8.6960    -0.0140    -0.0100 nb         1 ZZ4      -0.789000
     14 C8           7.9880    -0.8540    -0.7550 ca         1 ZZ4       0.956900
     15 N2           8.6550    -1.7590    -1.5580 nv         1 ZZ4      -0.996500
     16 N4           6.0530     1.8150     1.6000 ne         1 ZZ4      -0.209400
     17 N5           6.7240     2.7050     2.2500 nf         1 ZZ4      -0.236400
     18 C13          6.0820     3.5420     3.1200 ca         1 ZZ4       0.099400
     19 C14          6.8170     4.4340     3.9070 ca         1 ZZ4      -0.095000
     20 C15          6.1630     5.2750     4.7820 ca         1 ZZ4      -0.138500
     21 C16          4.7840     5.2370     4.8860 ca         1 ZZ4      -0.106000
     22 C11          4.0510     4.3560     4.1110 ca         1 ZZ4      -0.138500
     23 C12          4.6900     3.5130     3.2260 ca         1 ZZ4      -0.095000
     24 H1           1.8790    -0.0000     2.1380 ha         1 ZZ4       0.150000
     25 H3           1.8810     0.0000    -2.1360 ha         1 ZZ4       0.160000
     26 H5           4.3410     0.0030     2.1500 ha         1 ZZ4       0.157000
     27 H10          8.6930     1.5530     1.3720 h4         1 ZZ4       0.055100
     28 H21N         8.2760    -2.6740    -1.7020 hn         1 ZZ4       0.452800
     29 H22N         9.5260    -1.5060    -1.9820 hn         1 ZZ4       0.452800
     30 H14          7.8970     4.4660     3.8270 ha         1 ZZ4       0.148500
     31 H12          4.1140     2.8240     2.6200 ha         1 ZZ4       0.148500
     32 H15          6.7310     5.9670     5.3920 ha         1 ZZ4       0.135000
     33 H16          4.2760     5.8980     5.5770 ha         1 ZZ4       0.132000
     34 H11          2.9710     4.3330     4.1950 ha         1 ZZ4       0.135000
@<TRIPOS>BOND
     1     1     2 1
     2     2     3 ar
     3     2     5 ar
     4     3     4 ar
     5     4     8 ar
     6     5     6 ar
     7     6     7 1
     8     6     8 ar
     9     8     9 1
    10     9    10 ar
    11     9    11 ar
    12    10    14 ar
    13    11    12 ar
    14    11    16 1
    15    12    13 ar
    16    13    14 ar
    17    14    15 1
    18    16    17 2
    19    17    18 1
    20    18    19 ar
    21    18    23 ar
    22    19    20 ar
    23    20    21 ar
    24    21    22 ar
    25    22    23 ar
    26     3    24 1
    27     5    25 1
    28     4    26 1
    29    12    27 1
    30    15    28 1
    31    15    29 1
    32    19    30 1
    33    23    31 1
    34    20    32 1
    35    21    33 1
    36    22    34 1
@<TRIPOS>SUBSTRUCTURE
     1 ZZ4         1 TEMP              0 ****  ****    0 ROOT
