@<TRIPOS>MOLECULE
molecule
   41    43     1     0     0
SMALL
bcc


@<TRIPOS>ATOM
      1 N19         -1.3230    -0.0070    -2.2010 n1         1 ZZ5      -0.308800
      2 C14         -0.7290    -0.0000    -1.2330 cg         1 ZZ5       0.232800
      3 C6           0.0000     0.0000     0.0000 ca         1 ZZ5      -0.141300
      4 C13          1.4090     0.0000     0.0000 ca         1 ZZ5       0.790200
      5 N18          2.0910     0.0020    -1.2020 nv         1 ZZ5      -1.074500
      6 N8           2.0830     0.0000     1.1300 nb         1 ZZ5      -0.702000
      7 C3           1.4870    -0.0010     2.3290 ca         1 ZZ5       0.607600
      8 S7           2.2040    -0.0010     3.9370 ss         1 ZZ5      -0.181900
      9 C9           0.6370    -0.0020     4.7210 cc         1 ZZ5      -0.348600
     10 C15          0.4410    -0.0020     6.1210 c          1 ZZ5       0.554300
     11 N20          1.5040    -0.0010     6.9500 nz         1 ZZ5      -0.685400
     12 O21         -0.6880    -0.0020     6.5790 o          1 ZZ5      -0.533100
     13 C4          -0.3650    -0.0020     3.8040 cd         1 ZZ5       0.376800
     14 N10         -1.7080    -0.0020     4.1540 nv         1 ZZ5      -0.817600
     15 C1           0.0910    -0.0010     2.4270 ca         1 ZZ5      -0.291100
     16 C2          -0.6770     0.0050     1.2290 cp         1 ZZ5       0.128000
     17 C5          -2.1540     0.0110     1.2780 cp         1 ZZ5      -0.163000
     18 C12         -2.8750    -1.0830     0.7940 ca         1 ZZ5      -0.073500
     19 C17         -4.2530    -1.0740     0.8420 ca         1 ZZ5      -0.190000
     20 C11         -2.8330     1.1070     1.8160 ca         1 ZZ5      -0.073500
     21 C16         -4.2090     1.1090     1.8600 ca         1 ZZ5      -0.190000
     22 C22         -4.9230     0.0220     1.3720 ca         1 ZZ5       0.180100
     23 O23         -6.2800     0.0270     1.4170 os         1 ZZ5      -0.311900
     24 C24         -6.9060     1.1850     1.9750 c3         1 ZZ5       0.125400
     25 C25         -8.4250     1.0090     1.9410 c3         1 ZZ5      -0.091100
     26 H181         2.4210     0.8640    -1.5890 hn         1 ZZ5       0.461800
     27 H182         2.2830    -0.8620    -1.6700 hn         1 ZZ5       0.461800
     28 H201         2.2540     0.5110     6.5300 hn         1 ZZ5       0.480133
     29 H202         1.2510     0.4290     7.8170 hn         1 ZZ5       0.480133
     30 H101        -1.9750     0.0940     5.1140 hn         1 ZZ5       0.475800
     31 H102        -2.4100    -0.0510     3.4420 hn         1 ZZ5       0.475800
     32 H12         -2.3520    -1.9280     0.3630 ha         1 ZZ5       0.148500
     33 H11         -2.2830     1.9930     2.1100 ha         1 ZZ5       0.148500
     34 H17         -4.8140    -1.9210     0.4670 ha         1 ZZ5       0.160500
     35 H16         -4.7370     1.9580     2.2760 ha         1 ZZ5       0.160500
     36 H241        -6.4570     1.4120     2.9340 h1         1 ZZ5       0.039200
     37 H242        -6.7730     2.0260     1.3050 h1         1 ZZ5       0.039200
     38 H251        -8.7500     0.8670     0.9170 hc         1 ZZ5       0.056367
     39 H252        -8.9000     1.8920     2.3510 hc         1 ZZ5       0.056367
     40 H253        -8.7020     0.1430     2.5310 hc         1 ZZ5       0.056367
     41 H203         1.5380    -0.8680     7.4490 hn         1 ZZ5       0.480133
@<TRIPOS>BOND
     1     1     2 3
     2     2     3 1
     3     3     4 ar
     4     3    16 ar
     5     4     5 1
     6     4     6 ar
     7     6     7 ar
     8     7     8 1
     9     7    15 ar
    10     8     9 1
    11     9    10 1
    12     9    13 2
    13    10    11 1
    14    10    12 2
    15    13    14 1
    16    13    15 1
    17    15    16 ar
    18    16    17 1
    19    17    18 ar
    20    17    20 ar
    21    18    19 ar
    22    19    22 ar
    23    20    21 ar
    24    21    22 ar
    25    22    23 1
    26    23    24 1
    27    24    25 1
    28     5    26 1
    29     5    27 1
    30    11    28 1
    31    11    29 1
    32    14    30 1
    33    14    31 1
    34    18    32 1
    35    20    33 1
    36    19    34 1
    37    21    35 1
    38    24    36 1
    39    24    37 1
    40    25    38 1
    41    25    39 1
    42    25    40 1
    43    41    11 1
@<TRIPOS>SUBSTRUCTURE
     1 ZZ5         1 TEMP              0 ****  ****    0 ROOT
