@<TRIPOS>MOLECULE
molecule
   35    37     1     0     0
SMALL
bcc


@<TRIPOS>ATOM
      1 Cl2          0.0000     0.0000     0.0000 cl         1 ZZ6      -0.071400
      2 C21          1.7350     0.0000     0.0000 ca         1 ZZ6       0.073400
      3 C20          2.4280     0.0000     1.1950 ca         1 ZZ6      -0.124000
      4 C19          3.8120    -0.0000     1.1950 ca         1 ZZ6       0.049400
      5 Cl1          4.6760     0.0000     2.7020 cl         1 ZZ6      -0.092400
      6 C18          4.5110    -0.0010    -0.0010 ca         1 ZZ6      -0.126000
      7 C17          3.8320    -0.0000    -1.2010 ca         1 ZZ6      -0.088000
      8 C11          2.4360    -0.0050    -1.2080 cp         1 ZZ6      -0.154500
      9 C2           1.7010    -0.0110    -2.4930 cp         1 ZZ6       0.577800
     10 N1           0.7130     0.8460    -2.7060 nb         1 ZZ6      -0.733000
     11 C4           0.0440     0.8530    -3.8520 ca         1 ZZ6       0.954900
     12 N10         -0.9790     1.7670    -4.0240 nv         1 ZZ6      -1.050500
     13 N3           0.3250     0.0130    -4.8330 nb         1 ZZ6      -0.728000
     14 C5           1.3040    -0.8860    -4.7110 ca         1 ZZ6       0.537600
     15 S9           1.8990    -2.1100    -5.8240 ss         1 ZZ6      -0.138900
     16 C6           2.0480    -0.9350    -3.5210 ca         1 ZZ6      -0.343400
     17 C7           3.0390    -1.9210    -3.5440 cc         1 ZZ6      -0.043200
     18 C8           3.1070    -2.6460    -4.6680 cd         1 ZZ6      -0.123600
     19 C12          4.0670    -3.7310    -4.9050 c          1 ZZ6       0.700300
     20 O13          4.8690    -4.0330    -4.0410 o          1 ZZ6      -0.598100
     21 N14          4.0590    -4.3930    -6.0780 ns         1 ZZ6      -0.579900
     22 C15          5.0160    -5.4760    -6.3140 c3         1 ZZ6       0.112000
     23 C16          4.7960    -6.0560    -7.7140 c3         1 ZZ6      -0.113100
     24 H20          1.8870     0.0020     2.1330 ha         1 ZZ6       0.161000
     25 H18          5.5950     0.0010     0.0070 ha         1 ZZ6       0.154000
     26 H17          4.3800    -0.0030    -2.1350 ha         1 ZZ6       0.153000
     27 H101        -1.9320     1.4730    -3.9410 hn         1 ZZ6       0.449800
     28 H102        -0.7660     2.7240    -4.2270 hn         1 ZZ6       0.449800
     29 H7           3.7010    -2.0940    -2.7040 ha         1 ZZ6       0.176000
     30 H14          3.3910    -4.1530    -6.7840 hn         1 ZZ6       0.315500
     31 H151         4.8720    -6.2540    -5.5740 h1         1 ZZ6       0.055700
     32 H152         6.0250    -5.0890    -6.2390 h1         1 ZZ6       0.055700
     33 H161         4.9360    -5.2780    -8.4530 hc         1 ZZ6       0.044033
     34 H162         3.7880    -6.4480    -7.7880 hc         1 ZZ6       0.044033
     35 H163         5.5070    -6.8540    -7.8900 hc         1 ZZ6       0.044033
@<TRIPOS>BOND
     1     1     2 1
     2     2     3 ar
     3     2     8 ar
     4     3     4 ar
     5     4     5 1
     6     4     6 ar
     7     6     7 ar
     8     7     8 ar
     9     8     9 1
    10     9    10 ar
    11     9    16 ar
    12    10    11 ar
    13    11    12 1
    14    11    13 ar
    15    13    14 ar
    16    14    15 1
    17    14    16 ar
    18    15    18 1
    19    16    17 1
    20    17    18 2
    21    18    19 1
    22    19    20 2
    23    19    21 1
    24    21    22 1
    25    22    23 1
    26     3    24 1
    27     6    25 1
    28     7    26 1
    29    12    27 1
    30    12    28 1
    31    17    29 1
    32    21    30 1
    33    22    31 1
    34    22    32 1
    35    23    33 1
    36    23    34 1
    37    23    35 1
@<TRIPOS>SUBSTRUCTURE
     1 ZZ6         1 TEMP              0 ****  ****    0 ROOT
