@<TRIPOS>MOLECULE
molecule
   45    46     1     0     0
SMALL
bcc


@<TRIPOS>ATOM
      1 O1           0.0000     0.0000     0.0000 o          1 ZZ7      -0.859300
      2 C2           1.2090     0.0000     0.0000 c          1 ZZ7       0.865600
      3 O2           1.8800     0.0060    -1.1630 o          1 ZZ7      -0.859300
      4 C12          1.9630     0.0000     1.3040 c3         1 ZZ7       0.082500
      5 C6           2.4300     1.4360     1.6080 c3         1 ZZ7       0.114100
      6 C1           2.0170     2.3870     0.4830 c3         1 ZZ7      -0.077600
      7 C16          3.9450     1.4770     1.8170 c3         1 ZZ7      -0.077600
      8 S1           1.5480     1.8530     3.1650 ss         1 ZZ7      -0.470200
      9 N3           1.0970    -0.5500     2.3510 n7         1 ZZ7      -0.800200
     10 C13          0.2870     0.5240     2.9910 c3         1 ZZ7       0.328600
     11 C14         -0.2380     0.0790     4.3580 c3         1 ZZ7       0.001700
     12 C15          0.9110    -0.4130     5.2010 c          1 ZZ7       0.906600
     13 O4           1.6510    -1.4520     4.7840 o          1 ZZ7      -0.821300
     14 N1          -0.8820     1.2130     5.0270 ns         1 ZZ7      -0.456900
     15 C3          -1.8300     0.9950     5.9600 c          1 ZZ7       0.627100
     16 O3          -2.1480    -0.1400     6.2470 o          1 ZZ7      -0.632100
     17 C4          -2.4930     2.1600     6.6470 c3         1 ZZ7       0.074800
     18 N2          -3.1010     1.7060     7.9050 nz         1 ZZ7      -0.789600
     19 C5          -3.5610     2.7310     5.7500 ca         1 ZZ7      -0.114300
     20 C7          -3.3060     3.8660     5.0050 ca         1 ZZ7      -0.126000
     21 C8          -4.2850     4.3900     4.1820 ca         1 ZZ7      -0.120500
     22 C9          -5.5210     3.7760     4.1040 ca         1 ZZ7      -0.104000
     23 C10         -5.7780     2.6390     4.8470 ca         1 ZZ7      -0.120500
     24 C11         -4.7960     2.1140     5.6670 ca         1 ZZ7      -0.126000
     25 OXT          1.1640     0.1280     6.2510 o          1 ZZ7      -0.821300
     26 H12          2.8350    -0.6350     1.2080 h1         1 ZZ7       0.080700
     27 H3           0.5650    -1.3600     2.1000 hn         1 ZZ7       0.395800
     28 H11C         2.2670     3.4040     0.7600 hc         1 ZZ7       0.041033
     29 H12C         0.9490     2.3100     0.3190 hc         1 ZZ7       0.041033
     30 H13C         2.5420     2.1200    -0.4260 hc         1 ZZ7       0.041033
     31 H161         4.4440     1.2290     0.8880 hc         1 ZZ7       0.041033
     32 H162         4.2240     0.7590     2.5790 hc         1 ZZ7       0.041033
     33 H163         4.2400     2.4710     2.1310 hc         1 ZZ7       0.041033
     34 H13         -0.5200     0.8400     2.3400 h2         1 ZZ7       0.049700
     35 H14         -0.9580    -0.7190     4.2260 h1         1 ZZ7       0.082700
     36 H1          -0.6090     2.1480     4.8010 hn         1 ZZ7       0.318500
     37 H4          -1.7530     2.9230     6.8580 hx         1 ZZ7       0.116700
     38 H21N        -3.7000     2.4230     8.2640 hn         1 ZZ7       0.452467
     39 H22N        -3.6370     0.8770     7.7370 hn         1 ZZ7       0.452467
     40 H7          -2.3420     4.3560     5.0780 ha         1 ZZ7       0.152500
     41 H11         -5.3600     1.2640     6.0300 ha         1 ZZ7       0.152500
     42 H8          -4.0990     5.3050     3.6340 ha         1 ZZ7       0.143500
     43 H9          -6.2900     4.1870     3.4600 ha         1 ZZ7       0.140000
     44 H10         -6.7460     2.1580     4.7850 ha         1 ZZ7       0.143500
     45 H23         -2.3810     1.5180     8.5750 hn         1 ZZ7       0.452467
@<TRIPOS>BOND
     1     1     2 1
     2     2     3 1
     3     2     4 1
     4     4     5 1
     5     4     9 1
     6     5     6 1
     7     5     7 1
     8     5     8 1
     9     8    10 1
    10     9    10 1
    11    10    11 1
    12    11    12 1
    13    11    14 1
    14    12    13 1
    15    12    25 1
    16    14    15 1
    17    15    16 2
    18    15    17 1
    19    17    18 1
    20    17    19 1
    21    19    20 ar
    22    19    24 ar
    23    20    21 ar
    24    21    22 ar
    25    22    23 ar
    26    23    24 ar
    27     4    26 1
    28     9    27 1
    29     6    28 1
    30     6    29 1
    31     6    30 1
    32     7    31 1
    33     7    32 1
    34     7    33 1
    35    10    34 1
    36    11    35 1
    37    14    36 1
    38    17    37 1
    39    18    38 1
    40    18    39 1
    41    20    40 1
    42    24    41 1
    43    21    42 1
    44    22    43 1
    45    23    44 1
    46    45    18 1
@<TRIPOS>SUBSTRUCTURE
     1 ZZ7         1 TEMP              0 ****  ****    0 ROOT
