@<TRIPOS>MOLECULE
molecule
   21    21     1     0     0
SMALL
bcc


@<TRIPOS>ATOM
      1 O21          0.0000     0.0000     0.0000 o          1 ZZ8      -0.641100
      2 C8           1.2130     0.0000     0.0000 c          1 ZZ8       0.646100
      3 C11          1.9670     0.0000     1.3050 c3         1 ZZ8      -0.170100
      4 N7           1.8870    -0.0060    -1.1670 ns         1 ZZ8      -0.445100
      5 C6           1.1940    -0.1280    -2.3700 ca         1 ZZ8       0.076600
      6 C1          -0.0480    -0.7480    -2.4000 ca         1 ZZ8      -0.168000
      7 C2          -0.7330    -0.8690    -3.5920 ca         1 ZZ8      -0.136000
      8 C3          -0.1880    -0.3730    -4.7670 ca         1 ZZ8      -0.186000
      9 C4           1.0430     0.2450    -4.7560 ca         1 ZZ8      -0.078000
     10 C5           1.7450     0.3790    -3.5560 ca         1 ZZ8      -0.143600
     11 C10          3.0610     1.0450    -3.5380 c          1 ZZ8       0.895200
     12 O12          3.7110     1.0760    -2.5110 o          1 ZZ8      -0.842800
     13 O13          3.5420     1.6180    -4.6580 o          1 ZZ8      -0.842800
     14 H111         2.6990    -0.7980     1.2980 hc         1 ZZ8       0.051700
     15 H112         2.4710     0.9510     1.4300 hc         1 ZZ8       0.051700
     16 H113         1.2740    -0.1520     2.1230 hc         1 ZZ8       0.051700
     17 H7           2.8870     0.0200    -1.1670 hn         1 ZZ8       0.372500
     18 H1          -0.4680    -1.1620    -1.4910 ha         1 ZZ8       0.149000
     19 H2          -1.7010    -1.3550    -3.6110 ha         1 ZZ8       0.104000
     20 H3          -0.7330    -0.4730    -5.6980 ha         1 ZZ8       0.103000
     21 H4           1.4430     0.6700    -5.6690 ha         1 ZZ8       0.152000
@<TRIPOS>BOND
     1     1     2 2
     2     2     3 1
     3     2     4 1
     4     4     5 1
     5     5     6 ar
     6     5    10 ar
     7     6     7 ar
     8     7     8 ar
     9     8     9 ar
    10     9    10 ar
    11    10    11 1
    12    11    12 1
    13    11    13 1
    14     3    14 1
    15     3    15 1
    16     3    16 1
    17     4    17 1
    18     6    18 1
    19     7    19 1
    20     8    20 1
    21     9    21 1
@<TRIPOS>SUBSTRUCTURE
     1 ZZ8         1 TEMP              0 ****  ****    0 ROOT
