@<TRIPOS>MOLECULE
ZZ8
   21    21     1     0     0
SMALL
bcc


@<TRIPOS>ATOM
      1 O21          0.0000     0.0000     0.0000 o          1 ZZ8      -0.688100
      2 C8           1.2130     0.0000     0.0000 c          1 ZZ8       0.545100
      3 C11          1.9670     0.0000     1.3050 c3         1 ZZ8      -0.071100
      4 N7           1.8870    -0.0060    -1.1670 ns         1 ZZ8      -0.023100
      5 C6           1.1940    -0.1280    -2.3700 ca         1 ZZ8      -0.059400
      6 C1          -0.0480    -0.7480    -2.4000 ca         1 ZZ8      -0.157000
      7 C2          -0.7330    -0.8690    -3.5920 ca         1 ZZ8      -0.109000
      8 C3          -0.1880    -0.3730    -4.7670 ca         1 ZZ8      -0.166000
      9 C4           1.0430     0.2450    -4.7560 ca         1 ZZ8      -0.048000
     10 C5           1.7450     0.3790    -3.5560 ca         1 ZZ8      -0.145600
     11 C10          3.0610     1.0450    -3.5380 c          1 ZZ8       0.991200
     12 O12          3.7110     1.0760    -2.5110 o          1 ZZ8      -0.887300
     13 O13          3.5420     1.6180    -4.6580 o          1 ZZ8      -0.887300
     14 H111         2.6990    -0.7980     1.2980 hc         1 ZZ8       0.014033
     15 H112         2.4710     0.9510     1.4300 hc         1 ZZ8       0.014033
     16 H113         1.2740    -0.1520     2.1230 hc         1 ZZ8       0.014033
     17 H7           2.8870     0.0200    -1.1670 hn         1 ZZ8       0.234500
     18 H1          -0.4680    -1.1620    -1.4910 ha         1 ZZ8       0.139000
     19 H2          -1.7010    -1.3550    -3.6110 ha         1 ZZ8       0.081000
     20 H3          -0.7330    -0.4730    -5.6980 ha         1 ZZ8       0.083000
     21 H4           1.4430     0.6700    -5.6690 ha         1 ZZ8       0.125000
@<TRIPOS>BOND
     1     1     2 2   
     2     2     3 1   
     3     2     4 1   
     4     3    14 1   
     5     3    15 1   
     6     3    16 1   
     7     4     5 1   
     8     4    17 1   
     9     5     6 ar  
    10     5    10 ar  
    11     6     7 ar  
    12     6    18 1   
    13     7     8 ar  
    14     7    19 1   
    15     8     9 ar  
    16     8    20 1   
    17     9    10 ar  
    18     9    21 1   
    19    10    11 1   
    20    11    12 1   
    21    11    13 1   
@<TRIPOS>SUBSTRUCTURE
     1 ZZ8         1 TEMP              0 ****  ****    0 ROOT
