@<TRIPOS>MOLECULE
molecule
   70    72     1     0     0
SMALL
bcc


@<TRIPOS>ATOM
      1 CAA          0.0000     0.0000     0.0000 c3         1 ZZ9      -0.092100
      2 CAJ          1.5300     0.0000     0.0000 c3         1 ZZ9      -0.084400
      3 CAK          2.0410     0.0000     1.4410 c3         1 ZZ9      -0.081400
      4 CAL          3.5700     0.0010     1.4410 c3         1 ZZ9      -0.082400
      5 CAM          4.0820     0.0000     2.8840 c3         1 ZZ9      -0.082400
      6 CAN          5.6120     0.0010     2.8820 c3         1 ZZ9      -0.082400
      7 CAO          6.1220     0.0000     4.3250 c3         1 ZZ9      -0.082400
      8 CAP          7.6530     0.0010     4.3240 c3         1 ZZ9      -0.080400
      9 CAQ          8.1630     0.0000     5.7660 c3         1 ZZ9      -0.083400
     10 CAR          9.6920     0.0010     5.7660 c3         1 ZZ9      -0.079400
     11 CAZ         10.2040     0.0010     7.2070 c3         1 ZZ9       0.429900
     12 OAC          9.8250     1.2220     7.8470 oh         1 ZZ9      -0.631800
     13 OAX         11.6280    -0.1160     7.2080 os         1 ZZ9      -0.601200
     14 PBI         12.4480    -0.8270     8.3980 p5         1 ZZ9       1.366800
     15 OAG         12.0730    -2.3920     8.4480 o          1 ZZ9      -0.828500
     16 OAD         12.0960    -0.1940     9.6880 o          1 ZZ9      -0.828500
     17 O5'         14.0280    -0.6630     8.1330 os         1 ZZ9      -0.589200
     18 C5'         15.0230    -1.0950     9.0630 c3         1 ZZ9       0.233400
     19 C4'         16.4130    -0.7900     8.5020 c3         1 ZZ9       0.118100
     20 O4'         16.6070     0.6330     8.4260 os         1 ZZ9      -0.389600
     21 C3'         17.4930    -1.3480     9.4470 c3         1 ZZ9       0.084100
     22 O3'         18.3060    -2.3070     8.7680 oh         1 ZZ9      -0.578800
     23 C2'         18.3320    -0.1080     9.8410 c3         1 ZZ9       0.087100
     24 O2'         19.7260    -0.4200     9.8610 oh         1 ZZ9      -0.566800
     25 C1'         18.0030     0.8830     8.6960 c3         1 ZZ9       0.255800
     26 N9          18.2030     2.2650     9.1360 na         1 ZZ9      -0.244000
     27 C8          17.2660     3.0730     9.7080 cc         1 ZZ9       0.448700
     28 N7          17.7850     4.2370     9.9750 nd         1 ZZ9      -0.607100
     29 C5          19.0840     4.2490     9.5930 ca         1 ZZ9      -0.208200
     30 C4          19.3700     2.9830     9.0550 ca         1 ZZ9       0.473800
     31 N3          20.5960     2.7320     8.6070 nb         1 ZZ9      -0.775000
     32 C2          21.5330     3.6550     8.6670 ca         1 ZZ9       0.724900
     33 N1          21.3130     4.8570     9.1660 nb         1 ZZ9      -0.847000
     34 C6          20.1160     5.2020     9.6310 ca         1 ZZ9       0.779200
     35 N6          19.8970     6.4650    10.1530 nv         1 ZZ9      -0.992500
     36 HAA         -0.3610     0.8820     0.5140 hc         1 ZZ9       0.030367
     37 HAAA        -0.3610    -0.8870     0.5070 hc         1 ZZ9       0.030367
     38 HAAB        -0.3610     0.0040    -1.0210 hc         1 ZZ9       0.030367
     39 HAJ          1.8910    -0.8840    -0.5110 hc         1 ZZ9       0.038700
     40 HAJA         1.8910     0.8840    -0.5110 hc         1 ZZ9       0.038700
     41 HAK          1.6800     0.8840     1.9530 hc         1 ZZ9       0.040200
     42 HAKA         1.6810    -0.8850     1.9520 hc         1 ZZ9       0.040200
     43 HAL          3.9310     0.8860     0.9300 hc         1 ZZ9       0.039700
     44 HALA         3.9320    -0.8830     0.9290 hc         1 ZZ9       0.039700
     45 HAM          3.7210    -0.8850     3.3940 hc         1 ZZ9       0.040200
     46 HAMA         3.7210     0.8840     3.3950 hc         1 ZZ9       0.040200
     47 HAN          5.9730    -0.8830     2.3710 hc         1 ZZ9       0.039700
     48 HANA         5.9720     0.8860     2.3720 hc         1 ZZ9       0.039700
     49 HAO          5.7610     0.8840     4.8360 hc         1 ZZ9       0.039700
     50 HAOA         5.7620    -0.8850     4.8350 hc         1 ZZ9       0.039700
     51 HAP          8.0130     0.8860     3.8130 hc         1 ZZ9       0.039200
     52 HAPA         8.0140    -0.8830     3.8120 hc         1 ZZ9       0.039200
     53 HAQ          7.8030    -0.8850     6.2760 hc         1 ZZ9       0.043200
     54 HAQA         7.8020     0.8840     6.2780 hc         1 ZZ9       0.043200
     55 HAR         10.0530     0.8860     5.2550 hc         1 ZZ9       0.055200
     56 HARA        10.0540    -0.8830     5.2550 hc         1 ZZ9       0.055200
     57 HAZ          9.7730    -0.8360     7.7430 h2         1 ZZ9       0.033700
     58 H5'         14.8900    -0.5730    10.0030 h1         1 ZZ9       0.039200
     59 H5'A        14.9250    -2.1620     9.2260 h1         1 ZZ9       0.039200
     60 H4'         16.5240    -1.2290     7.5180 h1         1 ZZ9       0.085700
     61 H3'         17.0350    -1.7870    10.3260 h1         1 ZZ9       0.052700
     62 HO3'        18.2540    -3.1360     9.2140 ho         1 ZZ9       0.401000
     63 H2'         18.0050     0.2870    10.7950 h1         1 ZZ9       0.056700
     64 HO2'        19.9950    -0.6020    10.7460 ho         1 ZZ9       0.397000
     65 H1'         18.6030     0.6640     7.8210 h2         1 ZZ9       0.108700
     66 H8          16.2400     2.7890     9.9110 h5         1 ZZ9       0.104800
     67 H2          22.5230     3.4160     8.2990 h5         1 ZZ9       0.053100
     68 HN6         18.9910     6.7110    10.5010 hn         1 ZZ9       0.445800
     69 HN6A        20.6420     7.1320    10.1770 hn         1 ZZ9       0.445800
     70 H35          9.4890     1.0340     8.7080 ho         1 ZZ9       0.410000
@<TRIPOS>BOND
     1     1     2 1
     2     1    36 1
     3     1    37 1
     4     1    38 1
     5     2     3 1
     6     2    39 1
     7     2    40 1
     8     3     4 1
     9     3    41 1
    10     3    42 1
    11     4     5 1
    12     4    43 1
    13     4    44 1
    14     5     6 1
    15     5    45 1
    16     5    46 1
    17     6     7 1
    18     6    47 1
    19     6    48 1
    20     7     8 1
    21     7    49 1
    22     7    50 1
    23     8     9 1
    24     8    51 1
    25     8    52 1
    26     9    10 1
    27     9    53 1
    28     9    54 1
    29    10    11 1
    30    10    55 1
    31    10    56 1
    32    11    12 1
    33    11    13 1
    34    11    57 1
    35    13    14 1
    36    14    15 1
    37    14    16 1
    38    14    17 1
    39    17    18 1
    40    18    19 1
    41    18    58 1
    42    18    59 1
    43    19    20 1
    44    19    21 1
    45    19    60 1
    46    20    25 1
    47    21    22 1
    48    21    23 1
    49    21    61 1
    50    22    62 1
    51    23    24 1
    52    23    25 1
    53    23    63 1
    54    24    64 1
    55    25    26 1
    56    25    65 1
    57    26    27 1
    58    26    30 1
    59    27    28 2
    60    27    66 1
    61    28    29 1
    62    29    30 ar
    63    29    34 ar
    64    30    31 ar
    65    31    32 ar
    66    32    33 ar
    67    32    67 1
    68    33    34 ar
    69    34    35 1
    70    35    68 1
    71    35    69 1
    72    12    70 1
@<TRIPOS>SUBSTRUCTURE
     1 ZZ9         1 TEMP              0 ****  ****    0 ROOT
