@<TRIPOS>MOLECULE
molecule
   21    22     1     0     0
SMALL
bcc


@<TRIPOS>ATOM
      1 O1           0.0000     0.0000     0.0000 o          1 ZZA      -0.842300
      2 C2           1.3450     0.0000     0.0000 c          1 ZZA       0.910200
      3 O3           1.9310     0.0000     1.0640 o          1 ZZA      -0.842300
      4 C4           2.1050    -0.0010    -1.2700 cc         1 ZZA      -0.289900
      5 C5           1.5700    -0.0650    -2.5830 cc         1 ZZA       0.374200
      6 N6           2.5720    -0.0490    -3.4310 nd         1 ZZA      -0.570800
      7 N7           3.7830     0.0310    -2.7160 na         1 ZZA       0.112300
      8 C8           3.4850     0.0480    -1.3990 cd         1 ZZA      -0.119300
      9 C9           5.0840     0.0570    -3.2700 ca         1 ZZA       0.075800
     10 C10          6.1500     0.6340    -2.5690 ca         1 ZZA      -0.152000
     11 C11          7.4220     0.6330    -3.1150 ca         1 ZZA      -0.116500
     12 C12          7.6510     0.0660    -4.3600 ca         1 ZZA      -0.167000
     13 C13          6.6030    -0.5030    -5.0680 ca         1 ZZA      -0.116500
     14 C14          5.3260    -0.5120    -4.5220 ca         1 ZZA      -0.152000
     15 H5           0.5190    -0.1210    -2.8400 h4         1 ZZA       0.061100
     16 H8           4.1980     0.1040    -0.5860 h4         1 ZZA       0.178000
     17 H10          5.9800     1.0790    -1.5960 ha         1 ZZA       0.147500
     18 H14          4.5080    -0.9570    -5.0760 ha         1 ZZA       0.147500
     19 H11          8.2430     1.0790    -2.5670 ha         1 ZZA       0.122500
     20 H12          8.6490     0.0720    -4.7820 ha         1 ZZA       0.117000
     21 H13          6.7810    -0.9470    -6.0400 ha         1 ZZA       0.122500
@<TRIPOS>BOND
     1     1     2 1
     2     2     3 1
     3     2     4 1
     4     4     5 1
     5     4     8 2
     6     5     6 2
     7     6     7 1
     8     7     8 1
     9     7     9 1
    10     9    10 ar
    11     9    14 ar
    12    10    11 ar
    13    11    12 ar
    14    12    13 ar
    15    13    14 ar
    16     5    15 1
    17     8    16 1
    18    10    17 1
    19    14    18 1
    20    11    19 1
    21    12    20 1
    22    13    21 1
@<TRIPOS>SUBSTRUCTURE
     1 ZZA         1 TEMP              0 ****  ****    0 ROOT
