@<TRIPOS>MOLECULE
ZZA
   21    22     1     0     0
SMALL
bcc


@<TRIPOS>ATOM
      1 O1          0.0060   -0.0240   -0.0810 o         1 ZZA     -0.830300
      2 C2          1.2520    0.1500    0.0360 c         1 ZZA      0.934200
      3 O3          1.8360    0.4230    1.1230 o         1 ZZA     -0.830300
      4 C4          2.0930    0.0240   -1.2000 cc        1 ZZA     -0.252900
      5 C5          1.6250   -0.2800   -2.5490 cc        1 ZZA      0.338200
      6 N6          2.6490   -0.3190   -3.4220 nd        1 ZZA     -0.559800
      7 N7          3.7780   -0.0500   -2.7090 na        1 ZZA      0.103300
      8 C8          3.4690    0.1650   -1.3370 cd        1 ZZA     -0.128300
      9 C9          5.0660   -0.0010   -3.2740 ca        1 ZZA      0.079800
     10 C10         6.1650    0.4640   -2.5140 ca        1 ZZA     -0.166000
     11 C11         7.4380    0.5040   -3.0720 ca        1 ZZA     -0.113500
     12 C12         7.6560    0.0960   -4.3860 ca        1 ZZA     -0.178000
     13 C13         6.5790   -0.3570   -5.1460 ca        1 ZZA     -0.113500
     14 C14         5.2980   -0.4110   -4.6100 ca        1 ZZA     -0.166000
     15 H5          0.5850   -0.4550   -2.8310 h4        1 ZZA      0.049100
     16 H8          4.2250    0.3830   -0.5850 h4        1 ZZA      0.178000
     17 H10         6.0270    0.8030   -1.4760 ha        1 ZZA      0.148500
     18 H14         4.4680   -0.7740   -5.2340 ha        1 ZZA      0.148500
     19 H11         8.2800    0.8670   -2.4630 ha        1 ZZA      0.120000
     20 H12         8.6650    0.1320   -4.8190 ha        1 ZZA      0.118000
     21 H13         6.7410   -0.6800   -6.1850 ha        1 ZZA      0.120000
@<TRIPOS>BOND
     1    1    2 1   
     2    2    3 1   
     3    2    4 1   
     4    4    5 1   
     5    4    8 2   
     6    5    6 2   
     7    5   15 1   
     8    6    7 1   
     9    7    8 1   
    10    7    9 1   
    11    8   16 1   
    12    9   10 ar  
    13    9   14 ar  
    14   10   11 ar  
    15   10   17 1   
    16   11   12 ar  
    17   11   19 1   
    18   12   13 ar  
    19   12   20 1   
    20   13   14 ar  
    21   13   21 1   
    22   14   18 1   
@<TRIPOS>SUBSTRUCTURE
     1 ZZA         1 TEMP              0 ****  ****    0 ROOT
