@<TRIPOS>MOLECULE
ZZC
   56    55     1     0     0
SMALL
bcc


@<TRIPOS>ATOM
      1 N1         -1.9050  120.2760 -379.8790 n2        1 ZZC     -0.311000
      2 C2         -2.8960  121.1710 -379.7150 c1        1 ZZC     -0.087000
      3 N3         -4.2310  120.8580 -379.8500 n3        1 ZZC     -0.180000
      4 C4         -4.5940  119.5670 -380.1890 c2        1 ZZC     -0.033000
      5 C5         -3.5370  118.5730 -380.3780 c2        1 ZZC     -0.258000
      6 C6         -2.1850  118.9770 -380.2120 c2        1 ZZC      0.178000
      7 N6         -1.1570  118.0450 -380.4490 n3        1 ZZC     -0.327000
      8 N7         -4.2010  117.3720 -380.6760 n3        1 ZZC     -0.212000
      9 C8         -5.5680  117.5700 -380.6670 c1        1 ZZC     -0.120000
     10 N9         -5.8220  118.9150 -380.3460 n3        1 ZZC      0.060000
     11 PA         11.5260 -130.4290  424.2990 p5        1 ZZC      1.982000
     12 PB         11.6740 -130.8160  426.8300 p5        1 ZZC      2.684000
     13 C2'A       13.2090 -133.9080  420.9760 c2        1 ZZC      0.215000
     14 C3'A       11.9600 -133.1180  420.6820 c3        1 ZZC     -0.089000
     15 C4'A       13.8250 -133.8000  428.0640 c3        1 ZZC     -0.105000
     16 C5'A       13.3480 -132.4300  427.7020 c1        1 ZZC     -0.012000
     17 O2'A       13.4090 -135.0070  420.4370 o         1 ZZC     -0.352000
     18 O4'A       15.0730 -133.7560  428.7350 oh        1 ZZC     -0.337000
     19 O5'A       12.1440 -132.3800  427.2030 os        1 ZZC     -0.604000
     20 C1'        -7.0490  119.5160 -380.2300 c2        1 ZZC     -0.641000
     21 O1A        11.0600 -129.1120  423.8570 o         1 ZZC     -0.810000
     22 O1B        11.3670 -130.1440  428.0780 o         1 ZZC     -1.077000
     23 C2'        -8.2760  118.8970 -380.7650 c3        1 ZZC      0.135000
     24 O2'        -9.1360  119.8730 -381.3540 oh        1 ZZC     -0.351000
     25 O2A        11.9910 -131.5130  423.4240 o         1 ZZC     -0.810000
     26 O2B        12.5790 -130.2880  425.6450 os        1 ZZC     -1.162500
     27 C3'        -9.0830  118.1690 -379.6610 c3        1 ZZC     -0.036000
     28 O3'        -9.3360  119.0380 -378.5660 oh        1 ZZC     -0.359000
     29 O3A        10.6460 -131.0090  425.6360 os        1 ZZC     -1.162500
     30 C4'        -8.3690  116.9140 -379.1530 c3        1 ZZC     -0.024000
     31 O4'        -8.1230  115.9850 -380.1850 oh        1 ZZC     -0.367000
     32 C5'         8.4010 -129.8330  422.7220 c1        1 ZZC      0.198000
     33 O5'         9.2600 -130.4650  423.2060 o         1 ZZC     -0.195000
     34 H2         -4.9290  121.5520 -379.7330 hn        1 ZZC      0.243000
     35 HN6        -1.3830  117.1260 -380.1400 hn        1 ZZC      0.179500
     36 HN6A       -0.2520  118.3410 -380.1530 hn        1 ZZC      0.179500
     37 H8         -3.7480  116.5430 -380.9440 hn        1 ZZC      0.237000
     38 H1'A       14.9510 -133.9920  422.2480 hc        1 ZZC      0.119333
     39 H1'B       14.6440 -132.3940  421.4330 hc        1 ZZC      0.119333
     40 H1'C       13.5970 -132.8930  422.8220 hc        1 ZZC      0.119333
     41 H3'A       11.4730 -132.7840  421.6460 h1        1 ZZC      0.138500
     42 H4'A       12.2420 -132.2080  420.0840 h1        1 ZZC      0.138500
     43 H5'A       13.1150 -134.3320  428.7550 h1        1 ZZC      0.101000
     44 H5'B       13.9570 -134.4230  427.1340 h1        1 ZZC      0.101000
     45 H4'B       15.4210 -132.8590  428.6420 ho        1 ZZC      0.214000
     46 H1'        -7.3540  116.3200 -380.6800 ho        1 ZZC      0.241000
     47 H2'        -7.0690  120.5580 -379.9110 h4        1 ZZC      0.114000
     48 HO2'       -9.2870  120.5450 -380.6800 ho        1 ZZC      0.186000
     49 H3'        -8.0780  118.1640 -381.5990 h1        1 ZZC      0.099000
     50 HO3'       -8.4860  119.4450 -378.3460 ho        1 ZZC      0.212000
     51 H4'       -10.1030  117.9050 -380.0550 h1        1 ZZC      0.095000
     52 H5'        -9.0280  116.3770 -378.4200 h1        1 ZZC      0.073500
     53 H5'C       -7.4110  117.2090 -378.6480 h1        1 ZZC      0.073500
     54 O3'A       10.9860 -133.8570  419.9710 oh        1 ZZC     -0.334000
     55 H3'B       11.4510 -134.5080  419.4290 ho        1 ZZC      0.202000
     56 C1'A       14.1610 -133.2730  421.9260 c3        1 ZZC     -0.282000
@<TRIPOS>BOND
     1    1    2 1
     2    1    6 1
     3    2    3 1
     4    3    4 1
     5    3   34 1
     6    4    5 1
     7    4   10 1
     8    5    6 1
     9    5    8 1
    10    6    7 1
    11    7   35 1
    12    7   36 1
    13    8    9 1
    14    8   37 1
    15    9   10 1
    16   10   20 1
    17   11   21 1
    18   11   25 1
    19   11   26 1
    20   11   29 1
    21   12   19 1
    22   12   22 1
    23   12   26 1
    24   12   29 1
    25   13   14 1
    26   13   17 1
    27   13   56 1
    28   14   41 1
    29   14   42 1
    30   14   54 1
    31   15   16 1
    32   15   18 1
    33   15   43 1
    34   15   44 1
    35   16   19 1
    36   18   45 1
    37   20   23 1
    38   20   47 1
    39   23   24 1
    40   23   27 1
    41   23   49 1
    42   24   48 1
    43   27   28 1
    44   27   30 1
    45   27   51 1
    46   28   50 1
    47   30   31 1
    48   30   52 1
    49   30   53 1
    50   31   46 1
    51   32   33 1
    52   38   56 1
    53   39   56 1
    54   40   56 1
    55   54   55 1
@<TRIPOS>SUBSTRUCTURE
     1 ZZC         1 TEMP              0 ****  ****    0 ROOT
