@<TRIPOS>MOLECULE
molecule
   41    42     1     0     0
SMALL
bcc


@<TRIPOS>ATOM
      1 C1           0.0000     0.0000     0.0000 cc         1 ZZE      -0.176200
      2 C2           1.3560     0.0000     0.0000 cd         1 ZZE      -0.060600
      3 C3          -0.4310    -0.0020     1.3330 cc         1 ZZE       0.371600
      4 O4          -0.8010     0.0050    -1.1020 os         1 ZZE      -0.193200
      5 N5           1.7660     0.0000     1.2960 na         1 ZZE       0.116400
      6 C6           2.2470     0.0020    -1.2150 c3         1 ZZE      -0.294100
      7 N7           0.6240    -0.0010     2.1070 nd         1 ZZE      -0.470800
      8 C8          -1.8650    -0.0020     1.7970 c3         1 ZZE      -0.461700
      9 C9          -1.1750    -1.1920    -1.6240 ca         1 ZZE       0.125100
     10 C10          3.1550     0.0010     1.7610 c3         1 ZZE      -0.276700
     11 C11          2.5490    -1.4410    -1.6270 c3         1 ZZE      -0.160100
     12 C12         -2.3500    -1.4450     1.9530 c3         1 ZZE       0.044900
     13 C13         -1.9900    -1.2330    -2.7450 ca         1 ZZE      -0.145000
     14 C14         -0.7370    -2.3700    -1.0380 ca         1 ZZE      -0.145000
     15 C15          3.6380     1.4440     1.9240 c3         1 ZZE      -0.051600
     16 C16         -2.3770    -2.4610    -3.2840 ca         1 ZZE       0.022500
     17 C17         -1.1190    -3.6020    -1.5720 ca         1 ZZE       0.022500
     18 O18          4.9930     1.4450     2.3780 oh         1 ZZE      -0.550800
     19 C19         -1.9430    -3.6470    -2.6950 ca         1 ZZE      -0.103000
     20 C20         -3.2190    -2.5020    -4.4420 cg         1 ZZE       0.222300
     21 C21         -0.6650    -4.8170    -0.9650 cg         1 ZZE       0.222300
     22 N22         -3.8880    -2.5540    -5.3590 n1         1 ZZE      -0.342800
     23 N23         -0.8270    -6.0860    -0.7260 n1         1 ZZE      -0.342800
     24 H61C         1.6420     0.1170    -2.1060 hc         1 ZZE       0.178200
     25 H62C         2.7900    -0.9340    -1.2660 hc         1 ZZE       0.178200
     26 H81C        -2.3820    -0.8530     1.3710 hc         1 ZZE       0.157200
     27 H82C        -2.3490     0.9130     1.4750 hc         1 ZZE       0.157200
     28 H101         3.5460     1.0100     1.7290 h1         1 ZZE       0.151700
     29 H102         3.7510    -0.6380     1.1200 h1         1 ZZE       0.151700
     30 H111         2.3380    -2.1050    -0.7980 hc         1 ZZE       0.080700
     31 H112         3.5930    -1.5270    -1.9020 hc         1 ZZE       0.080700
     32 H113         1.9290    -1.7120    -2.4730 hc         1 ZZE       0.080700
     33 H121        -2.2520    -1.9630     1.0070 hc         1 ZZE       0.044033
     34 H122        -1.7530    -1.9480     2.7040 hc         1 ZZE       0.044033
     35 H123        -3.3890    -1.4450     2.2590 hc         1 ZZE       0.044033
     36 H13         -2.3590    -0.3120    -3.1800 ha         1 ZZE       0.164500
     37 H14         -0.1160    -2.3350    -0.1510 ha         1 ZZE       0.164500
     38 H151         4.6590     1.4440     2.2870 h1         1 ZZE       0.176200
     39 H152         3.0020     1.9600     2.6320 h1         1 ZZE       0.176200
     40 H18          5.1540     2.2230     2.8860 ho         1 ZZE       0.439000
     41 H19         -2.2420    -4.6010    -3.1130 ha         1 ZZE       0.157000
@<TRIPOS>BOND
     1     1     2 2
     2     1     3 1
     3     1     4 1
     4     2     5 1
     5     2     6 1
     6     3     7 2
     7     3     8 1
     8     4     9 1
     9     5     7 1
    10     5    10 1
    11     6    11 1
    12     8    12 1
    13     9    13 ar
    14     9    14 ar
    15    10    15 1
    16    13    16 ar
    17    14    17 ar
    18    15    18 1
    19    16    19 ar
    20    16    20 1
    21    17    19 ar
    22    17    21 1
    23    20    22 3
    24    21    23 3
    25     6    24 1
    26     6    25 1
    27     8    26 1
    28     8    27 1
    29    10    28 1
    30    10    29 1
    31    11    30 1
    32    11    31 1
    33    11    32 1
    34    12    33 1
    35    12    34 1
    36    12    35 1
    37    13    36 1
    38    14    37 1
    39    15    38 1
    40    15    39 1
    41    18    40 1
    42    19    41 1
@<TRIPOS>SUBSTRUCTURE
     1 ZZE         1 TEMP              0 ****  ****    0 ROOT
