@<TRIPOS>MOLECULE
molecule
   45    47     1     0     0
SMALL
bcc


@<TRIPOS>ATOM
      1 C1           0.0000     0.0000     0.0000 c3         1 ZZF      -0.140400
      2 C2           1.5070     0.0000     0.0000 ca         1 ZZF       0.413600
      3 C3           2.1880     0.0000     1.2030 ca         1 ZZF      -0.225300
      4 C4           3.5730     0.0000     1.1960 ca         1 ZZF      -0.170000
      5 C5           4.2290     0.0000    -0.0320 ca         1 ZZF      -0.009200
      6 C6           3.4750     0.0000    -1.1970 ca         1 ZZF       0.430600
      7 N7           2.1580    -0.0060    -1.1470 nb         1 ZZF      -0.656000
      8 C8           4.1690     0.0010    -2.5340 c3         1 ZZF      -0.136400
      9 O9           5.5860     0.0010    -0.0890 os         1 ZZF      -0.237200
     10 C10          6.2730     0.0510     1.0800 ca         1 ZZF       0.189100
     11 C11          6.5010    -1.1050     1.8250 ca         1 ZZF      -0.293300
     12 C12          7.2030    -1.0180     3.0080 ca         1 ZZF       0.471200
     13 N13          7.6590     0.1430     3.4420 nb         1 ZZF      -0.761000
     14 C14          7.4650     1.2660     2.7650 ca         1 ZZF       0.671200
     15 C15          6.7720     1.2550     1.5630 ca         1 ZZF      -0.299300
     16 N16          7.9650     2.4640     3.2620 nu         1 ZZF      -0.767300
     17 C17          8.5530     2.5040     4.5300 ca         1 ZZF       0.274600
     18 C18          9.6510     3.3230     4.7630 ca         1 ZZF      -0.160500
     19 C19         10.2280     3.3600     6.0170 ca         1 ZZF      -0.009000
     20 C20          9.7150     2.5840     7.0400 ca         1 ZZF      -0.375500
     21 C21          8.6230     1.7680     6.8120 ca         1 ZZF      -0.009000
     22 C22          8.0360     1.7300     5.5610 ca         1 ZZF      -0.160500
     23 S23         10.4560     2.6340     8.6370 sy         1 ZZF       1.223200
     24 O24         10.1210     1.4090     9.2740 o          1 ZZF      -0.524300
     25 O25         11.7950     3.0690     8.4460 o          1 ZZF      -0.524300
     26 N26          9.6950     3.8300     9.4940 nz         1 ZZF      -0.805500
     27 H11C        -0.3610     0.8980     0.4860 hc         1 ZZF       0.056367
     28 H12C        -0.3610    -0.0280    -1.0210 hc         1 ZZF       0.056367
     29 H13C        -0.3610    -0.8700     0.5350 hc         1 ZZF       0.056367
     30 H3           1.6450    -0.0000     2.1400 ha         1 ZZF       0.143000
     31 H4           4.1330    -0.0000     2.1230 ha         1 ZZF       0.139000
     32 H81C         3.4310    -0.0510    -3.3250 hc         1 ZZF       0.058700
     33 H82C         4.7480     0.9110    -2.6400 hc         1 ZZF       0.058700
     34 H83C         4.8290    -0.8560    -2.5990 hc         1 ZZF       0.058700
     35 H11          6.1310    -2.0620     1.4770 ha         1 ZZF       0.168000
     36 H15          6.6150     2.1750     1.0120 ha         1 ZZF       0.158000
     37 H12          7.3830    -1.9140     3.5910 h4         1 ZZF       0.040100
     38 H16          7.8780     3.3040     2.7250 hn         1 ZZF       0.473800
     39 H18         10.0540     3.9310     3.9620 ha         1 ZZF       0.173500
     40 H22          7.1800     1.0900     5.3820 ha         1 ZZF       0.173500
     41 H19         11.0850     3.9980     6.1990 ha         1 ZZF       0.154000
     42 H21          8.2220     1.1630     7.6160 ha         1 ZZF       0.154000
     43 H261         9.8120     4.7050     9.0220 hn         1 ZZF       0.489467
     44 H262         8.7190     3.6180     9.5680 hn         1 ZZF       0.489467
     45 H263        10.0930     3.8890    10.4100 hn         1 ZZF       0.489467
@<TRIPOS>BOND
     1     1     2 1
     2     2     3 ar
     3     2     7 ar
     4     3     4 ar
     5     4     5 ar
     6     5     6 ar
     7     5     9 1
     8     6     7 ar
     9     6     8 1
    10     9    10 1
    11    10    11 ar
    12    10    15 ar
    13    11    12 ar
    14    12    13 ar
    15    13    14 ar
    16    14    15 ar
    17    14    16 1
    18    16    17 1
    19    17    18 ar
    20    17    22 ar
    21    18    19 ar
    22    19    20 ar
    23    20    21 ar
    24    20    23 1
    25    21    22 ar
    26    23    24 2
    27    23    25 2
    28    23    26 1
    29     1    27 1
    30     1    28 1
    31     1    29 1
    32     3    30 1
    33     4    31 1
    34     8    32 1
    35     8    33 1
    36     8    34 1
    37    11    35 1
    38    15    36 1
    39    12    37 1
    40    16    38 1
    41    18    39 1
    42    22    40 1
    43    19    41 1
    44    21    42 1
    45    26    43 1
    46    26    44 1
    47    45    26 1
@<TRIPOS>SUBSTRUCTURE
     1 ZZF         1 TEMP              0 ****  ****    0 ROOT
