@<TRIPOS>MOLECULE
ZZG
   60    63     1     0     0
SMALL
bcc


@<TRIPOS>ATOM
      1 C1           0.0000     0.0000     0.0000 c3         1 ZZG       0.239700
      2 O2           1.4290     0.0000     0.0000 os         1 ZZG      -0.292400
      3 C3           2.0460     0.0000     1.2130 ca         1 ZZG       0.183100
      4 C4           1.2900     0.0000     2.3750 ca         1 ZZG      -0.268500
      5 C5           1.9200     0.0010     3.6120 ca         1 ZZG       0.079600
      6 N6           1.1550     0.0020     4.7860 nu         1 ZZG      -0.311300
      7 C7           1.6240    -0.6510     5.9200 ca         1 ZZG       0.510200
      8 C8           0.9210    -0.5470     7.1140 ca         1 ZZG      -0.312300
      9 C9           1.4010    -1.2050     8.2390 ca         1 ZZG       0.180100
     10 O10          0.7420    -1.1280     9.4230 os         1 ZZG      -0.185200
     11 C11          1.2440    -0.3060    10.3810 ca         1 ZZG       0.067800
     12 C12          2.3320     0.5140    10.1070 ca         1 ZZG      -0.178000
     13 C13          2.8100     1.3370    11.1150 ca         1 ZZG      -0.153600
     14 C14          3.9870     2.2430    10.8630 c3         1 ZZG       0.064200
     15 C15          2.1960     1.3170    12.3560 ca         1 ZZG       0.329600
     16 C16          2.7150     2.2110    13.4530 c3         1 ZZG      -0.037400
     17 N17          1.1670     0.5320    12.5910 nb         1 ZZG      -0.523000
     18 C18          0.6710    -0.2670    11.6550 cp         1 ZZG       0.280300
     19 C19         -0.4930    -1.1310    11.9650 cp         1 ZZG       0.327300
     20 C20         -0.6610    -1.6270    13.2570 ca         1 ZZG      -0.184300
     21 C21         -1.7540    -2.4310    13.5310 ca         1 ZZG      -0.077000
     22 C22         -2.6430    -2.7130    12.5050 ca         1 ZZG      -0.219300
     23 C23         -2.4150    -2.1880    11.2460 ca         1 ZZG       0.397200
     24 N24         -1.3700    -1.4200    11.0130 nb         1 ZZG      -0.559000
     25 C25          2.5770    -1.9470     8.1230 ca         1 ZZG      -0.309300
     26 C26          3.2190    -2.0040     6.9050 ca         1 ZZG       0.462200
     27 N27          2.7350    -1.3710     5.8520 nb         1 ZZG      -0.646000
     28 C28          3.3050    -0.0000     3.6870 ca         1 ZZG      -0.268500
     29 C29          4.0630    -0.0010     2.5250 ca         1 ZZG       0.183100
     30 O30          5.4200    -0.0010     2.5990 os         1 ZZG      -0.292400
     31 C31          6.0000    -0.1170     3.9000 c3         1 ZZG       0.239700
     32 C32          3.4330    -0.0060     1.2870 ca         1 ZZG       0.024100
     33 O33          4.1760    -0.0120     0.1460 os         1 ZZG      -0.307900
     34 C34          4.5360     1.2570    -0.4020 c3         1 ZZG       0.249700
     35 H11C        -0.3610    -0.8900     0.5010 h1         1 ZZG      -0.001967
     36 H12C        -0.3610     0.8790     0.5200 h1         1 ZZG      -0.001967
     37 H13C        -0.3610     0.0110    -1.0210 h1         1 ZZG      -0.001967
     38 H4           0.2090    -0.0410     2.3180 ha         1 ZZG       0.141000
     39 H6           0.2930     0.5090     4.8200 hn         1 ZZG       0.289800
     40 H28          3.7960     0.0000     4.6530 ha         1 ZZG       0.141000
     41 H8          -0.0740    -0.1180     7.1210 ha         1 ZZG       0.135000
     42 H25          2.9810    -2.4710     8.9800 ha         1 ZZG       0.130000
     43 H12          2.6430     0.6760     9.0820 ha         1 ZZG       0.134000
     44 H141         4.7950     1.9800    11.5360 hc         1 ZZG       0.012367
     45 H142         4.3190     2.1270     9.8380 hc         1 ZZG       0.012367
     46 H143         3.6940     3.2710    11.0340 hc         1 ZZG       0.012367
     47 H161         3.7390     1.9410    13.6840 hc         1 ZZG       0.013367
     48 H162         2.1020     2.0900    14.3380 hc         1 ZZG       0.013367
     49 H163         2.6780     3.2430    13.1260 hc         1 ZZG       0.013367
     50 H20          0.0530    -1.3870    14.0360 ha         1 ZZG       0.126000
     51 H21         -1.9120    -2.8310    14.5260 ha         1 ZZG       0.108000
     52 H22         -3.5070    -3.3410    12.6870 ha         1 ZZG       0.111000
     53 H23         -3.1090    -2.4040    10.4430 h4         1 ZZG      -0.021900
     54 H26          4.1310    -2.5810     6.8090 h4         1 ZZG      -0.019900
     55 H311         5.6360    -1.0190     4.3780 h1         1 ZZG      -0.001967
     56 H312         5.7250     0.7440     4.4960 h1         1 ZZG      -0.001967
     57 H313         7.0790    -0.1660     3.8120 h1         1 ZZG      -0.001967
     58 H341         3.9200     1.4640    -1.2690 h1         1 ZZG      -0.010967
     59 H342         4.3820     2.0290     0.3420 h1         1 ZZG      -0.010967
     60 H343         5.5790     1.2420    -0.6950 h1         1 ZZG      -0.010967
@<TRIPOS>BOND
     1     1     2 1   
     2     1    35 1   
     3     1    36 1   
     4     1    37 1   
     5     2     3 1   
     6     3     4 ar  
     7     3    32 ar  
     8     4     5 ar  
     9     4    38 1   
    10     5     6 1   
    11     5    28 ar  
    12     6     7 1   
    13     6    39 1   
    14     7     8 ar  
    15     7    27 ar  
    16     8     9 ar  
    17     8    41 1   
    18     9    10 1   
    19     9    25 ar  
    20    10    11 1   
    21    11    12 ar  
    22    11    18 ar  
    23    12    13 ar  
    24    12    43 1   
    25    13    14 1   
    26    13    15 ar  
    27    14    44 1   
    28    14    45 1   
    29    14    46 1   
    30    15    16 1   
    31    15    17 ar  
    32    16    47 1   
    33    16    48 1   
    34    16    49 1   
    35    17    18 ar  
    36    18    19 1   
    37    19    20 ar  
    38    19    24 ar  
    39    20    21 ar  
    40    20    50 1   
    41    21    22 ar  
    42    21    51 1   
    43    22    23 ar  
    44    22    52 1   
    45    23    24 ar  
    46    23    53 1   
    47    25    26 ar  
    48    25    42 1   
    49    26    27 ar  
    50    26    54 1   
    51    28    29 ar  
    52    28    40 1   
    53    29    30 1   
    54    29    32 ar  
    55    30    31 1   
    56    31    55 1   
    57    31    56 1   
    58    31    57 1   
    59    32    33 1   
    60    33    34 1   
    61    34    58 1   
    62    34    59 1   
    63    34    60 1   
@<TRIPOS>SUBSTRUCTURE
     1 ZZG         1 TEMP              0 ****  ****    0 ROOT
