@<TRIPOS>MOLECULE
molecule
   44    46     1     0     0
SMALL
bcc


@<TRIPOS>ATOM
      1 CAK          0.0000     0.0000     0.0000 ca         1 ZZH      -0.121500
      2 CAG          1.3820     0.0000     0.0000 ca         1 ZZH      -0.138000
      3 CAD          2.0740     0.0000     1.1970 ca         1 ZZH      -0.150000
      4 CAH          1.3830    -0.0010     2.3940 ca         1 ZZH      -0.138000
      5 CAL          0.0010    -0.0020     2.3950 ca         1 ZZH      -0.121500
      6 CAW         -0.6910    -0.0010     1.1970 ca         1 ZZH      -0.065300
      7 CAR         -2.1990    -0.0010     1.1980 c3         1 ZZH      -0.020100
      8 CAY         -2.7080    -1.4450     1.1960 c3         1 ZZH       0.032100
      9 CAT         -4.2100    -1.4460     1.3200 c          1 ZZH       0.868600
     10 OAB         -4.7910    -0.9880     2.4400 o          1 ZZH      -0.826300
     11 OAA         -4.8900    -1.8600     0.4130 o          1 ZZH      -0.826300
     12 OAS         -2.3300    -2.0810    -0.0250 os         1 ZZH      -0.314900
     13 CAX         -2.2310    -3.4370    -0.0100 ca         1 ZZH       0.195100
     14 CAP         -1.7630    -4.1120    -1.1270 ca         1 ZZH      -0.190000
     15 CAN         -1.6640    -5.4900    -1.1090 ca         1 ZZH      -0.089000
     16 CAO         -2.5960    -4.1460     1.1250 ca         1 ZZH      -0.190000
     17 CAM         -2.4950    -5.5240     1.1380 ca         1 ZZH      -0.089000
     18 CAV         -2.0330    -6.1960     0.0220 ca         1 ZZH      -0.153300
     19 CAQ         -1.9240    -7.6980     0.0390 c3         1 ZZH       0.021200
     20 CAU         -0.5600    -8.0980     0.5400 ca         1 ZZH      -0.045300
     21 CAI         -0.3520    -8.2990     1.8920 ca         1 ZZH      -0.122500
     22 CAE          0.8990    -8.6660     2.3520 ca         1 ZZH      -0.137500
     23 CAC          1.9420    -8.8320     1.4600 ca         1 ZZH      -0.144000
     24 CAF          1.7330    -8.6320     0.1080 ca         1 ZZH      -0.137500
     25 CAJ          0.4820    -8.2700    -0.3520 ca         1 ZZH      -0.122500
     26 HAK         -0.5420     0.0000    -0.9380 ha         1 ZZH       0.136500
     27 HAG          1.9230     0.0010    -0.9380 ha         1 ZZH       0.114500
     28 HAD          3.1570     0.0000     1.1960 ha         1 ZZH       0.111000
     29 HAH          1.9250    -0.0020     3.3320 ha         1 ZZH       0.114500
     30 HAL         -0.5400    -0.0030     3.3330 ha         1 ZZH       0.136500
     31 HAR         -2.5590     0.5070     2.0840 hc         1 ZZH       0.070200
     32 HARA        -2.5600     0.5110     0.3150 hc         1 ZZH       0.070200
     33 HAY         -2.2760    -1.9820     2.0320 h1         1 ZZH       0.042700
     34 HAP         -1.4740    -3.5600    -2.0130 ha         1 ZZH       0.146500
     35 HAN         -1.3000    -6.0180    -1.9820 ha         1 ZZH       0.114500
     36 HAO         -2.9580    -3.6210     2.0000 ha         1 ZZH       0.146500
     37 HAM         -2.7810    -6.0790     2.0230 ha         1 ZZH       0.114500
     38 HAQ         -2.0670    -8.0820    -0.9640 hc         1 ZZH       0.045200
     39 HAQA        -2.6840    -8.1080     0.6930 hc         1 ZZH       0.045200
     40 HAI         -1.1770    -8.2000     2.5870 ha         1 ZZH       0.130500
     41 HAE          1.0530    -8.8550     3.4080 ha         1 ZZH       0.120000
     42 HAC          2.9150    -9.1470     1.8170 ha         1 ZZH       0.117000
     43 HAF          2.5530    -8.7530    -0.5900 ha         1 ZZH       0.120000
     44 HAJ          0.5060    -8.4200    -1.4250 ha         1 ZZH       0.130500
@<TRIPOS>BOND
     1     1     2 ar
     2     1     6 ar
     3     2     3 ar
     4     3     4 ar
     5     4     5 ar
     6     5     6 ar
     7     6     7 1
     8     7     8 1
     9     8     9 1
    10     8    12 1
    11     9    10 1
    12     9    11 1
    13    12    13 1
    14    13    14 ar
    15    13    16 ar
    16    14    15 ar
    17    15    18 ar
    18    16    17 ar
    19    17    18 ar
    20    18    19 1
    21    19    20 1
    22    20    21 ar
    23    20    25 ar
    24    21    22 ar
    25    22    23 ar
    26    23    24 ar
    27    24    25 ar
    28     1    26 1
    29     2    27 1
    30     3    28 1
    31     4    29 1
    32     5    30 1
    33     7    31 1
    34     7    32 1
    35     8    33 1
    36    14    34 1
    37    15    35 1
    38    16    36 1
    39    17    37 1
    40    19    38 1
    41    19    39 1
    42    21    40 1
    43    22    41 1
    44    23    42 1
    45    24    43 1
    46    25    44 1
@<TRIPOS>SUBSTRUCTURE
     1 ZZH         1 TEMP              0 ****  ****    0 ROOT
