@<TRIPOS>MOLECULE
ZZH
   44    46     1     0     0
SMALL
bcc


@<TRIPOS>ATOM
      1 CAK         0.4460    1.3070    0.4350 ca        1 ZZH     -0.131500
      2 CAG         1.3350    2.0580    1.2020 ca        1 ZZH     -0.141500
      3 CAD         1.2340    2.0570    2.5910 ca        1 ZZH     -0.154000
      4 CAH         0.2390    1.3010    3.2120 ca        1 ZZH     -0.141500
      5 CAL        -0.6530    0.5490    2.4500 ca        1 ZZH     -0.131500
      6 CAW        -0.5570    0.5470    1.0510 ca        1 ZZH     -0.055300
      7 CAR        -1.5200   -0.2230    0.2200 c3        1 ZZH     -0.042100
      8 CAY        -1.8810   -1.5740    0.8360 c3        1 ZZH      0.011100
      9 CAT        -3.1530   -1.4530    1.7280 c         1 ZZH      0.898600
     10 OAB        -4.2130   -1.0050    1.2250 o         1 ZZH     -0.820300
     11 OAA        -3.0010   -1.7840    2.9400 o         1 ZZH     -0.820300
     12 OAS        -2.0830   -2.4420   -0.3030 os        1 ZZH     -0.324900
     13 CAX        -2.0990   -3.7900   -0.0580 ca        1 ZZH      0.168100
     14 CAP        -2.0290   -4.6040   -1.2080 ca        1 ZZH     -0.191000
     15 CAN        -2.0380   -5.9860   -1.0720 ca        1 ZZH     -0.099000
     16 CAO        -2.1890   -4.3780    1.2150 ca        1 ZZH     -0.191000
     17 CAM        -2.1930   -5.7640    1.3250 ca        1 ZZH     -0.099000
     18 CAV        -2.1120   -6.5820    0.1920 ca        1 ZZH     -0.155300
     19 CAQ        -2.1410   -8.0640    0.3250 c3        1 ZZH      0.020200
     20 CAU        -0.7900   -8.6950    0.3890 ca        1 ZZH     -0.061300
     21 CAI         0.2580   -8.0870    1.0910 ca        1 ZZH     -0.127500
     22 CAE         1.5040   -8.7040    1.1700 ca        1 ZZH     -0.134000
     23 CAC         1.7180   -9.9360    0.5510 ca        1 ZZH     -0.145000
     24 CAF         0.6800  -10.5470   -0.1510 ca        1 ZZH     -0.134000
     25 CAJ        -0.5680   -9.9300   -0.2330 ca        1 ZZH     -0.127500
     26 HAK         0.5310    1.3100   -0.6610 ha        1 ZZH      0.156500
     27 HAG         2.1180    2.6510    0.7080 ha        1 ZZH      0.116000
     28 HAD         1.9350    2.6490    3.1960 ha        1 ZZH      0.110000
     29 HAH         0.1550    1.2960    4.3080 ha        1 ZZH      0.116000
     30 HAL        -1.4440   -0.0560    2.9390 ha        1 ZZH      0.156500
     31 HAR        -2.4710    0.3700    0.1070 hc        1 ZZH      0.066200
     32 HARA       -1.1000   -0.3840   -0.8100 hc        1 ZZH      0.066200
     33 HAY        -1.0280   -1.9780    1.4460 h1        1 ZZH      0.042700
     34 HAP        -1.9770   -4.1310   -2.1970 ha        1 ZZH      0.166500
     35 HAN        -1.9850   -6.6190   -1.9700 ha        1 ZZH      0.116500
     36 HAO        -2.2930   -3.7420    2.1150 ha        1 ZZH      0.166500
     37 HAM        -2.2730   -6.2220    2.3230 ha        1 ZZH      0.116500
     38 HAQ        -2.7150   -8.5010   -0.5380 hc        1 ZZH      0.046700
     39 HAQA       -2.6960   -8.3440    1.2640 hc        1 ZZH      0.046700
     40 HAI         0.0870   -7.1090    1.5700 ha        1 ZZH      0.138000
     41 HAE         2.3220   -8.2160    1.7200 ha        1 ZZH      0.122000
     42 HAC         2.7020  -10.4210    0.6130 ha        1 ZZH      0.119000
     43 HAF         0.8440  -11.5160   -0.6430 ha        1 ZZH      0.122000
     44 HAJ        -1.3820  -10.4150   -0.7900 ha        1 ZZH      0.138000
@<TRIPOS>BOND
     1    1    2 ar  
     2    1    6 ar  
     3    1   26 1   
     4    2    3 ar  
     5    2   27 1   
     6    3    4 ar  
     7    3   28 1   
     8    4    5 ar  
     9    4   29 1   
    10    5    6 ar  
    11    5   30 1   
    12    6    7 1   
    13    7    8 1   
    14    7   31 1   
    15    7   32 1   
    16    8    9 1   
    17    8   12 1   
    18    8   33 1   
    19    9   10 1   
    20    9   11 1   
    21   12   13 1   
    22   13   14 ar  
    23   13   16 ar  
    24   14   15 ar  
    25   14   34 1   
    26   15   18 ar  
    27   15   35 1   
    28   16   17 ar  
    29   16   36 1   
    30   17   18 ar  
    31   17   37 1   
    32   18   19 1   
    33   19   20 1   
    34   19   38 1   
    35   19   39 1   
    36   20   21 ar  
    37   20   25 ar  
    38   21   22 ar  
    39   21   40 1   
    40   22   23 ar  
    41   22   41 1   
    42   23   24 ar  
    43   23   42 1   
    44   24   25 ar  
    45   24   43 1   
    46   25   44 1   
@<TRIPOS>SUBSTRUCTURE
     1 ZZH         1 TEMP              0 ****  ****    0 ROOT
