@<TRIPOS>MOLECULE
ZZI
   36    35     1     0     0
SMALL
bcc


@<TRIPOS>ATOM
      1 CAA          0.0000     0.0000     0.0000 c3         1 ZZI       0.011900
      2 CAB          1.5300     0.0000     0.0000 c3         1 ZZI      -0.059400
      3 CAC          2.0400     0.0000     1.4420 c3         1 ZZI       0.047000
      4 NAH          3.5050    -0.0010     1.4420 n          1 ZZI      -0.149800
      5 CAG          4.2380     1.2680     1.4420 c3         1 ZZI       0.047000
      6 CAF          4.3510     1.7920     2.8750 c3         1 ZZI      -0.059400
      7 CAE          4.9860     3.1840     2.8610 c3         1 ZZI       0.011900
      8 CAI          4.1790    -1.1680     1.4420 c          1 ZZI       0.577100
      9 OAD          3.5770    -2.2150     1.3300 o          1 ZZI      -0.625100
     10 CAJ          5.6790    -1.1720     1.5790 c3         1 ZZI       0.097100
     11 OAN          6.2570    -1.8800     0.4810 oh         1 ZZI      -0.554800
     12 CAK          6.0700    -1.8580     2.8910 c3         1 ZZI       0.180100
     13 OAO          5.3920    -1.2260     3.9790 oh         1 ZZI      -0.593800
     14 CAL          7.5820    -1.7430     3.0960 c3         1 ZZI       0.192400
     15 OAM          7.9610    -2.4820     4.2580 oh         1 ZZI      -0.592800
     16 HAA1        -0.3610     0.8940     0.4940 hc         1 ZZI       0.001200
     17 HAA2        -0.3610    -0.0190    -1.0210 hc         1 ZZI       0.001200
     18 HAA3        -0.3610    -0.8750     0.5270 hc         1 ZZI       0.001200
     19 HAB1         1.8910    -0.8840    -0.5110 hc         1 ZZI       0.026450
     20 HAB2         1.8910     0.8840    -0.5110 hc         1 ZZI       0.026450
     21 HAC1         1.6790    -0.8840     1.9530 h1         1 ZZI       0.027950
     22 HAC2         1.6800     0.8850     1.9530 h1         1 ZZI       0.027950
     23 HAG1         3.7070     1.9910     0.8340 h1         1 ZZI       0.027950
     24 HAG2         5.2290     1.1130     1.0350 h1         1 ZZI       0.027950
     25 HAF1         3.3640     1.8510     3.3170 hc         1 ZZI       0.026450
     26 HAF2         4.9680     1.1190     3.4570 hc         1 ZZI       0.026450
     27 HAE1         5.9310     3.1440     2.3330 hc         1 ZZI       0.001200
     28 HAE2         4.3220     3.8790     2.3600 hc         1 ZZI       0.001200
     29 HAE3         5.1540     3.5140     3.8780 hc         1 ZZI       0.001200
     30 HAJ          6.0440    -0.1520     1.5830 h1         1 ZZI       0.022700
     31 HAN          6.6600    -1.2670    -0.1110 ho         1 ZZI       0.386000
     32 HAK          5.7900    -2.9040     2.8480 h1         1 ZZI       0.040700
     33 HAO          5.2090    -1.8650     4.6480 ho         1 ZZI       0.410000
     34 HAL1         8.0950    -2.1430     2.2300 h1         1 ZZI      -0.003800
     35 HAL2         7.8510    -0.7020     3.2260 h1         1 ZZI      -0.003800
     36 HAM          8.9010    -2.5440     4.2990 ho         1 ZZI       0.393000
@<TRIPOS>BOND
     1     1     2 1   
     2     1    16 1   
     3     1    17 1   
     4     1    18 1   
     5     2     3 1   
     6     2    19 1   
     7     2    20 1   
     8     3     4 1   
     9     3    21 1   
    10     3    22 1   
    11     4     5 1   
    12     4     8 1   
    13     5     6 1   
    14     5    23 1   
    15     5    24 1   
    16     6     7 1   
    17     6    25 1   
    18     6    26 1   
    19     7    27 1   
    20     7    28 1   
    21     7    29 1   
    22     8     9 2   
    23     8    10 1   
    24    10    11 1   
    25    10    12 1   
    26    10    30 1   
    27    11    31 1   
    28    12    13 1   
    29    12    14 1   
    30    12    32 1   
    31    13    33 1   
    32    14    15 1   
    33    14    34 1   
    34    14    35 1   
    35    15    36 1   
@<TRIPOS>SUBSTRUCTURE
     1 ZZI         1 TEMP              0 ****  ****    0 ROOT
