@<TRIPOS>MOLECULE
molecule
   41    44     1     0     0
SMALL
bcc


@<TRIPOS>ATOM
      1 N01          0.0000     0.0000     0.0000 nz         1 ZZK      -0.676400
      2 C02          1.3470     0.0000     0.0000 c          1 ZZK       0.506700
      3 O03          1.9560     0.0000     1.0530 o          1 ZZK      -0.428100
      4 C04          2.0860     0.0010    -1.2780 ca         1 ZZK      -0.208600
      5 C05          3.4840     0.0020    -1.2780 ca         1 ZZK      -0.086000
      6 C06          4.1700     0.0030    -2.4710 ca         1 ZZK      -0.120000
      7 C07          3.4720     0.0030    -3.6800 cp         1 ZZK       0.079000
      8 C08          4.2120     0.0040    -4.9620 cp         1 ZZK      -0.235300
      9 C09          3.8990    -0.9160    -5.9620 ca         1 ZZK      -0.056000
     10 C10          4.6270    -0.8730    -7.1530 cp         1 ZZK      -0.158300
     11 C11          4.3320    -1.8290    -8.2480 cp         1 ZZK      -0.041000
     12 C12          4.2460    -3.1950    -7.9800 ca         1 ZZK      -0.119000
     13 C13          3.9710    -4.0830    -8.9990 ca         1 ZZK      -0.120000
     14 C14          3.7790    -3.6240   -10.2900 ca         1 ZZK      -0.101000
     15 C15          3.8600    -2.2690   -10.5710 ca         1 ZZK       0.059100
     16 O16          3.7130    -1.5760   -11.7380 os         1 ZZK      -0.317900
     17 C17          4.3060    -0.2870   -11.4970 c3         1 ZZK       0.332200
     18 O18          4.1640    -0.1070   -10.0750 os         1 ZZK      -0.328900
     19 C19          4.1320    -1.3640    -9.5490 ca         1 ZZK       0.061100
     20 C20          5.6330     0.0780    -7.3020 ca         1 ZZK       0.483200
     21 N21          5.9060     0.9340    -6.3370 nb         1 ZZK      -0.698000
     22 C22          5.2390     0.9350    -5.1940 ca         1 ZZK       0.707200
     23 N23          5.5590     1.8590    -4.2110 nv         1 ZZK      -1.082500
     24 C24          2.0770     0.0030    -3.6800 ca         1 ZZK      -0.120000
     25 C25          1.3880    -0.0040    -2.4890 ca         1 ZZK      -0.086000
     26 H011        -0.3340    -0.8170    -0.4720 hn         1 ZZK       0.476133
     27 H012        -0.3340     0.0000     0.9440 hn         1 ZZK       0.476133
     28 H05          4.0260     0.0400    -0.3410 ha         1 ZZK       0.155500
     29 H25          0.3460     0.0120    -2.7860 ha         1 ZZK       0.155500
     30 H06          5.2530    -0.0380    -2.4720 ha         1 ZZK       0.168500
     31 H24          1.5350     0.0200    -4.6180 ha         1 ZZK       0.168500
     32 H09          3.2920    -1.7820    -5.7290 ha         1 ZZK       0.145000
     33 H20          6.2020     0.1140    -8.2230 h4         1 ZZK       0.046100
     34 H12          4.4250    -3.5610    -6.9760 ha         1 ZZK       0.138000
     35 H13          3.9060    -5.1430    -8.7880 ha         1 ZZK       0.147000
     36 H14          3.5630    -4.3270   -11.0860 ha         1 ZZK       0.154000
     37 H171         3.7480     0.4780   -12.0220 h2         1 ZZK       0.079200
     38 H172         5.3560    -0.3100   -11.7620 h2         1 ZZK       0.079200
     39 H231         5.0040     2.6840    -4.1010 hn         1 ZZK       0.442300
     40 H232         6.3790     1.7290    -3.6510 hn         1 ZZK       0.442300
     41 H013        -0.3340     0.8190    -0.4680 hn         1 ZZK       0.476133
@<TRIPOS>BOND
     1     1     2 1
     2     2     3 2
     3     2     4 1
     4     4     5 ar
     5     4    25 ar
     6     5     6 ar
     7     6     7 ar
     8     7     8 1
     9     7    24 ar
    10     8     9 ar
    11     8    22 ar
    12     9    10 ar
    13    10    11 1
    14    10    20 ar
    15    11    12 ar
    16    11    19 ar
    17    12    13 ar
    18    13    14 ar
    19    14    15 ar
    20    15    16 1
    21    15    19 ar
    22    16    17 1
    23    17    18 1
    24    18    19 1
    25    20    21 ar
    26    21    22 ar
    27    22    23 1
    28    24    25 ar
    29     1    26 1
    30     1    27 1
    31     5    28 1
    32    25    29 1
    33     6    30 1
    34    24    31 1
    35     9    32 1
    36    20    33 1
    37    12    34 1
    38    13    35 1
    39    14    36 1
    40    17    37 1
    41    17    38 1
    42    23    39 1
    43    23    40 1
    44    41     1 1
@<TRIPOS>SUBSTRUCTURE
     1 ZZK         1 TEMP              0 ****  ****    0 ROOT
