@<TRIPOS>MOLECULE
ZZL
   48    52     1     0     0
SMALL
bcc


@<TRIPOS>ATOM
      1 C13          0.0000     0.0000     0.0000 c3         1 ZZL       0.238100
      2 C15         -0.2900     1.5210     1.8430 ce         1 ZZL       0.478500
      3 C17         -2.1190     2.8810     2.8550 ca         1 ZZL       0.153400
      4 C20         -1.8220     5.2240     3.2620 ca         1 ZZL      -0.050000
      5 C21         -0.5400     5.1630     2.7470 ca         1 ZZL      -0.151000
      6 C22         -0.0370     3.9640     2.2760 ca         1 ZZL       0.153400
      7 C24          0.4210     0.6740     2.8140 ca         1 ZZL      -0.129900
      8 C26          0.4960    -0.1930     5.0670 ca         1 ZZL      -0.030600
      9 C28          1.6570    -0.8860     4.7650 ca         1 ZZL      -0.100000
     10 O01          7.8000    -1.0880    -5.9130 o          1 ZZL      -0.884300
     11 O03          9.4330     0.2440    -5.2130 o          1 ZZL      -0.884300
     12 C04          7.5610    -0.2880    -3.7340 ca         1 ZZL      -0.090600
     13 C05          6.3510    -0.9610    -3.5340 ca         1 ZZL      -0.053000
     14 C06          5.6940    -0.8490    -2.3300 ca         1 ZZL      -0.148500
     15 C07          6.2320    -0.0660    -1.3130 ca         1 ZZL      -0.070400
     16 C09          4.1800     0.0260    -0.0610 ca         1 ZZL       0.705900
     17 N10          3.5060     0.0140    -1.2020 nb         1 ZZL      -0.655000
     18 C11          2.1830     0.0020    -1.2080 ca         1 ZZL       0.506200
     19 C12          1.5010     0.0000     0.0000 ca         1 ZZL      -0.436900
     20 N14         -0.4860     1.2340     0.6070 n2         1 ZZL      -0.482900
     21 C16         -0.8250     2.8100     2.3320 ca         1 ZZL      -0.180900
     22 C19         -2.6100     4.0890     3.3150 ca         1 ZZL      -0.151000
     23 C25         -0.1180     0.5800     4.1050 ca         1 ZZL      -0.095000
     24 Cl1         -0.1860    -0.2960     6.6600 cl         1 ZZL      -0.037400
     25 C29          2.2000    -0.8070     3.5020 ca         1 ZZL      -0.059000
     26 C30          1.5890    -0.0270     2.5120 cp         1 ZZL      -0.109500
     27 C31          2.2310     0.0000     1.1780 cp         1 ZZL       0.516800
     28 N32          3.5650     0.0190     1.1100 nb         1 ZZL      -0.707000
     29 C33          7.4360     0.6050    -1.5080 ca         1 ZZL      -0.148500
     30 C34          8.1010     0.4920    -2.7080 ca         1 ZZL      -0.053000
     31 H131        -0.3490    -0.8390     0.5890 h1         1 ZZL       0.023700
     32 H132        -0.3490    -0.0460    -1.0250 h1         1 ZZL       0.023700
     33 H19         -3.6130     4.1450     3.7200 ha         1 ZZL       0.121500
     34 H20         -2.2110     6.1670     3.6270 ha         1 ZZL       0.106000
     35 H21          0.0700     6.0570     2.7060 ha         1 ZZL       0.121500
     36 H25         -1.0260     1.1200     4.3490 ha         1 ZZL       0.124000
     37 H28          2.1370    -1.4920     5.5240 ha         1 ZZL       0.114000
     38 H29          3.1080    -1.3510     3.2720 ha         1 ZZL       0.127000
     39 H05          5.9500    -1.5970    -4.3130 ha         1 ZZL       0.120500
     40 H34          9.0220     1.0620    -2.7230 ha         1 ZZL       0.120500
     41 H06          4.7830    -1.4090    -2.1580 ha         1 ZZL       0.099500
     42 H08          6.0860     0.1050     0.7570 hn         1 ZZL       0.280800
     43 H33          7.8500     1.2150    -0.7150 ha         1 ZZL       0.099500
     44 H11          1.6390    -0.0070    -2.1450 h4         1 ZZL      -0.013900
     45 N08          5.5650     0.0440    -0.0960 nu         1 ZZL      -0.244300
     46 F18         -2.8880     1.7720     2.9130 f          1 ZZL      -0.119400
     47 F23          1.2150     3.9050     1.7730 f          1 ZZL      -0.119400
     48 C02          8.2670    -0.4050    -5.0220 c          1 ZZL       0.971200
@<TRIPOS>BOND
     1     1    19 1   
     2     1    20 1   
     3     1    31 1   
     4     1    32 1   
     5     2     7 1   
     6     2    20 2   
     7     2    21 1   
     8     3    21 ar  
     9     3    22 ar  
    10     3    46 1   
    11     4     5 ar  
    12     4    22 ar  
    13     4    34 1   
    14     5     6 ar  
    15     5    35 1   
    16     6    21 ar  
    17     6    47 1   
    18     7    23 ar  
    19     7    26 ar  
    20     8     9 ar  
    21     8    23 ar  
    22     8    24 1   
    23     9    25 ar  
    24     9    37 1   
    25    10    48 1   
    26    11    48 1   
    27    12    13 ar  
    28    12    30 ar  
    29    12    48 1   
    30    13    14 ar  
    31    13    39 1   
    32    14    15 ar  
    33    14    41 1   
    34    15    29 ar  
    35    15    45 1   
    36    16    17 ar  
    37    16    28 ar  
    38    16    45 1   
    39    17    18 ar  
    40    18    19 ar  
    41    18    44 1   
    42    19    27 ar  
    43    22    33 1   
    44    23    36 1   
    45    25    26 ar  
    46    25    38 1   
    47    26    27 1   
    48    27    28 ar  
    49    29    30 ar  
    50    29    43 1   
    51    30    40 1   
    52    42    45 1   
@<TRIPOS>SUBSTRUCTURE
     1 ZZL         1 TEMP              0 ****  ****    0 ROOT
