@<TRIPOS>MOLECULE
molecule
   48    52     1     0     0
SMALL
bcc


@<TRIPOS>ATOM
      1 C13          0.0000     0.0000     0.0000 c3         1 ZZL       0.181100
      2 C15         -0.2900     1.5210     1.8430 ce         1 ZZL       0.514500
      3 C17         -2.1190     2.8810     2.8550 ca         1 ZZL       0.182400
      4 C20         -1.8220     5.2240     3.2620 ca         1 ZZL      -0.076000
      5 C21         -0.5400     5.1630     2.7470 ca         1 ZZL      -0.188000
      6 C22         -0.0370     3.9640     2.2760 ca         1 ZZL       0.182400
      7 C24          0.4210     0.6740     2.8140 ca         1 ZZL      -0.142900
      8 C26          0.4960    -0.1930     5.0670 ca         1 ZZL       0.030400
      9 C28          1.6570    -0.8860     4.7650 ca         1 ZZL      -0.123000
     10 O01          7.8000    -1.0880    -5.9130 o          1 ZZL      -0.837300
     11 O03          9.4330     0.2440    -5.2130 o          1 ZZL      -0.837300
     12 C04          7.5610    -0.2880    -3.7340 ca         1 ZZL      -0.099600
     13 C05          6.3510    -0.9610    -3.5340 ca         1 ZZL      -0.082000
     14 C06          5.6940    -0.8490    -2.3300 ca         1 ZZL      -0.170500
     15 C07          6.2320    -0.0660    -1.3130 ca         1 ZZL       0.102600
     16 C09          4.1800     0.0260    -0.0610 ca         1 ZZL       0.946900
     17 N10          3.5060     0.0140    -1.2020 nb         1 ZZL      -0.753000
     18 C11          2.1830     0.0020    -1.2080 ca         1 ZZL       0.513200
     19 C12          1.5010     0.0000     0.0000 ca         1 ZZL      -0.417900
     20 N14         -0.4860     1.2340     0.6070 n2         1 ZZL      -0.561900
     21 C16         -0.8250     2.8100     2.3320 ca         1 ZZL      -0.195900
     22 C19         -2.6100     4.0890     3.3150 ca         1 ZZL      -0.188000
     23 C25         -0.1180     0.5800     4.1050 ca         1 ZZL      -0.108000
     24 Cl1         -0.1860    -0.2960     6.6600 cl         1 ZZL      -0.116400
     25 C29          2.2000    -0.8070     3.5020 ca         1 ZZL      -0.083000
     26 C30          1.5890    -0.0270     2.5120 cp         1 ZZL      -0.108500
     27 C31          2.2310     0.0000     1.1780 cp         1 ZZL       0.551800
     28 N32          3.5650     0.0190     1.1100 nb         1 ZZL      -0.805000
     29 C33          7.4360     0.6050    -1.5080 ca         1 ZZL      -0.170500
     30 C34          8.1010     0.4920    -2.7080 ca         1 ZZL      -0.082000
     31 H131        -0.3490    -0.8390     0.5890 h1         1 ZZL       0.063700
     32 H132        -0.3490    -0.0460    -1.0250 h1         1 ZZL       0.063700
     33 H19         -3.6130     4.1450     3.7200 ha         1 ZZL       0.149000
     34 H20         -2.2110     6.1670     3.6270 ha         1 ZZL       0.140000
     35 H21          0.0700     6.0570     2.7060 ha         1 ZZL       0.149000
     36 H25         -1.0260     1.1200     4.3490 ha         1 ZZL       0.150000
     37 H28          2.1370    -1.4920     5.5240 ha         1 ZZL       0.145000
     38 H29          3.1080    -1.3510     3.2720 ha         1 ZZL       0.162000
     39 H05          5.9500    -1.5970    -4.3130 ha         1 ZZL       0.148500
     40 H34          9.0220     1.0620    -2.7230 ha         1 ZZL       0.148500
     41 H06          4.7830    -1.4090    -2.1580 ha         1 ZZL       0.117500
     42 H08          6.0860     0.1050     0.7570 hn         1 ZZL       0.456800
     43 H33          7.8500     1.2150    -0.7150 ha         1 ZZL       0.117500
     44 H11          1.6390    -0.0070    -2.1450 h4         1 ZZL       0.034100
     45 N08          5.5650     0.0440    -0.0960 nu         1 ZZL      -0.733300
     46 F18         -2.8880     1.7720     2.9130 f          1 ZZL      -0.122900
     47 F23          1.2150     3.9050     1.7730 f          1 ZZL      -0.122900
     48 C02          8.2670    -0.4050    -5.0220 c          1 ZZL       0.881200
@<TRIPOS>BOND
     1     1    19 1
     2     1    20 1
     3     2     7 1
     4     2    20 2
     5     2    21 1
     6     3    21 ar
     7     3    46 1
     8     3    22 ar
     9     4     5 ar
    10     4    22 ar
    11     5     6 ar
    12     6    21 ar
    13     6    47 1
    14     7    23 ar
    15     7    26 ar
    16     8     9 ar
    17     8    23 ar
    18     8    24 1
    19     9    25 ar
    20    10    48 1
    21    48    11 1
    22    48    12 1
    23    12    13 ar
    24    12    30 ar
    25    13    14 ar
    26    14    15 ar
    27    15    45 1
    28    15    29 ar
    29    45    16 1
    30    16    17 ar
    31    16    28 ar
    32    17    18 ar
    33    18    19 ar
    34    19    27 ar
    35    25    26 ar
    36    26    27 1
    37    27    28 ar
    38    29    30 ar
    39     1    31 1
    40     1    32 1
    41    22    33 1
    42     4    34 1
    43     5    35 1
    44    23    36 1
    45     9    37 1
    46    25    38 1
    47    13    39 1
    48    30    40 1
    49    14    41 1
    50    45    42 1
    51    29    43 1
    52    18    44 1
@<TRIPOS>SUBSTRUCTURE
     1 ZZL         1 TEMP              0 ****  ****    0 ROOT
