@<TRIPOS>MOLECULE
ZZM
   35    37     1     0     0
SMALL
bcc


@<TRIPOS>ATOM
      1 CAA          0.0000     0.0000     0.0000 c3         1 ZZM      -0.013100
      2 CAB          1.5300     0.0000     0.0000 c3         1 ZZM      -0.034000
      3 CAC          2.0410     0.0000     1.4420 c3         1 ZZM      -0.013100
      4 NAE          2.0180    -1.1970    -0.6910 na         1 ZZM       0.388200
      5 NAD          1.7480    -2.5160    -0.3100 nc         1 ZZM      -0.610100
      6 C6           2.8010    -1.1970    -1.8070 ca         1 ZZM       0.347800
      7 N1           3.3340    -0.2440    -2.5730 nb         1 ZZM      -0.694000
      8 C2           4.0680    -0.5560    -3.6190 ca         1 ZZM       0.711900
      9 N3           4.3160    -1.8060    -3.9690 nb         1 ZZM      -0.745000
     10 C4           3.8300    -2.8250    -3.2670 ca         1 ZZM       0.613200
     11 NAN          4.0930    -4.1300    -3.6370 nv         1 ZZM      -0.522500
     12 C5           3.0390    -2.5430    -2.1410 ca         1 ZZM      -0.547500
     13 CAI          2.3360    -3.3490    -1.1410 cd         1 ZZM       0.505800
     14 CAM          2.2930    -4.7790    -1.0810 ch         1 ZZM      -0.099200
     15 CAO          2.2410    -5.9510    -1.0430 cg         1 ZZM      -0.065000
     16 CAP          2.5950    -7.3630    -0.7050 ca         1 ZZM      -0.042300
     17 CAQ          3.7540    -8.1250    -0.9830 ca         1 ZZM      -0.065000
     18 CAR          3.9050    -9.3530    -0.6140 ca         1 ZZM      -0.227300
     19 CAU          3.1150   -10.1370     0.0420 ca         1 ZZM       0.415200
     20 NAT          1.8820    -9.5280     0.4100 nb         1 ZZM      -0.587000
     21 CAS          1.6710    -8.3290     0.0810 ca         1 ZZM       0.416200
     22 HAA1        -0.3610     0.8830     0.5130 hc         1 ZZM       0.016700
     23 HAA2        -0.3610     0.0020    -1.0210 hc         1 ZZM       0.016700
     24 HAA3        -0.3610    -0.8860     0.5090 hc         1 ZZM       0.016700
     25 HAB          1.8920     0.8850    -0.5110 h1         1 ZZM       0.058700
     26 HAC1         3.1240     0.0100     1.4420 hc         1 ZZM       0.016700
     27 HAC2         1.6880    -0.8890     1.9500 hc         1 ZZM       0.016700
     28 HAC3         1.6720     0.8800     1.9560 hc         1 ZZM       0.016700
     29 H2           4.4940     0.2270    -4.2330 h5         1 ZZM      -0.004900
     30 HAN1         3.4080    -4.8430    -3.4800 hn         1 ZZM       0.277800
     31 HAN2         4.9620    -4.3600    -4.0780 hn         1 ZZM       0.277800
     32 HAQ          4.5800    -7.6360    -1.4850 ha         1 ZZM       0.097000
     33 HAS          0.6790    -7.9560     0.3090 h4         1 ZZM      -0.032900
     34 HAR          4.8300    -9.8110    -0.9430 ha         1 ZZM       0.096000
     35 HAU          3.3240   -11.1860     0.2120 h4         1 ZZM      -0.004900
@<TRIPOS>BOND
     1     1     2 1   
     2     1    22 1   
     3     1    23 1   
     4     1    24 1   
     5     2     3 1   
     6     2     4 1   
     7     2    25 1   
     8     3    26 1   
     9     3    27 1   
    10     3    28 1   
    11     4     5 1   
    12     4     6 1   
    13     5    13 2   
    14     6     7 ar  
    15     6    12 ar  
    16     7     8 ar  
    17     8     9 ar  
    18     8    29 1   
    19     9    10 ar  
    20    10    11 1   
    21    10    12 ar  
    22    11    30 1   
    23    11    31 1   
    24    12    13 1   
    25    13    14 1   
    26    14    15 3   
    27    15    16 1   
    28    16    17 ar  
    29    16    21 ar  
    30    17    18 ar  
    31    17    32 1   
    32    18    19 ar  
    33    18    34 1   
    34    19    20 ar  
    35    19    35 1   
    36    20    21 ar  
    37    21    33 1   
@<TRIPOS>SUBSTRUCTURE
     1 ZZM         1 TEMP              0 ****  ****    0 ROOT
