@<TRIPOS>MOLECULE
molecule
   35    37     1     0     0
SMALL
bcc


@<TRIPOS>ATOM
      1 CAA          0.0000     0.0000     0.0000 c3         1 ZZM      -0.108100
      2 CAB          1.5300     0.0000     0.0000 c3         1 ZZM       0.085000
      3 CAC          2.0410     0.0000     1.4420 c3         1 ZZM      -0.108100
      4 NAE          2.0180    -1.1970    -0.6910 na         1 ZZM      -0.018800
      5 NAD          1.7480    -2.5160    -0.3100 nc         1 ZZM      -0.474100
      6 C6           2.8010    -1.1970    -1.8070 ca         1 ZZM       0.534800
      7 N1           3.3340    -0.2440    -2.5730 nb         1 ZZM      -0.804000
      8 C2           4.0680    -0.5560    -3.6190 ca         1 ZZM       0.756900
      9 N3           4.3160    -1.8060    -3.9690 nb         1 ZZM      -0.836000
     10 C4           3.8300    -2.8250    -3.2670 ca         1 ZZM       0.794200
     11 NAN          4.0930    -4.1300    -3.6370 nv         1 ZZM      -1.007500
     12 C5           3.0390    -2.5430    -2.1410 ca         1 ZZM      -0.527500
     13 CAI          2.3360    -3.3490    -1.1410 cd         1 ZZM       0.451800
     14 CAM          2.2930    -4.7790    -1.0810 ch         1 ZZM      -0.089200
     15 CAO          2.2410    -5.9510    -1.0430 cg         1 ZZM      -0.062000
     16 CAP          2.5950    -7.3630    -0.7050 ca         1 ZZM      -0.090300
     17 CAQ          3.7540    -8.1250    -0.9830 ca         1 ZZM      -0.077000
     18 CAR          3.9050    -9.3530    -0.6140 ca         1 ZZM      -0.248300
     19 CAU          3.1150   -10.1370     0.0420 ca         1 ZZM       0.414200
     20 NAT          1.8820    -9.5280     0.4100 nb         1 ZZM      -0.669000
     21 CAS          1.6710    -8.3290     0.0810 ca         1 ZZM       0.433200
     22 HAA1        -0.3610     0.8830     0.5130 hc         1 ZZM       0.049700
     23 HAA2        -0.3610     0.0020    -1.0210 hc         1 ZZM       0.049700
     24 HAA3        -0.3610    -0.8860     0.5090 hc         1 ZZM       0.049700
     25 HAB          1.8920     0.8850    -0.5110 h1         1 ZZM       0.088700
     26 HAC1         3.1240     0.0100     1.4420 hc         1 ZZM       0.049700
     27 HAC2         1.6880    -0.8890     1.9500 hc         1 ZZM       0.049700
     28 HAC3         1.6720     0.8800     1.9560 hc         1 ZZM       0.049700
     29 H2           4.4940     0.2270    -4.2330 h5         1 ZZM       0.062100
     30 HAN1         3.4080    -4.8430    -3.4800 hn         1 ZZM       0.447300
     31 HAN2         4.9620    -4.3600    -4.0780 hn         1 ZZM       0.447300
     32 HAQ          4.5800    -7.6360    -1.4850 ha         1 ZZM       0.128000
     33 HAS          0.6790    -7.9560     0.3090 h4         1 ZZM       0.019100
     34 HAR          4.8300    -9.8110    -0.9430 ha         1 ZZM       0.121000
     35 HAU          3.3240   -11.1860     0.2120 h4         1 ZZM       0.038100
@<TRIPOS>BOND
     1     1     2 1
     2     2     3 1
     3     2     4 1
     4     4     5 1
     5     4     6 1
     6     5    13 2
     7     6     7 ar
     8     6    12 ar
     9     7     8 ar
    10     8     9 ar
    11     9    10 ar
    12    10    11 1
    13    10    12 ar
    14    12    13 1
    15    13    14 1
    16    14    15 3
    17    15    16 1
    18    16    17 ar
    19    16    21 ar
    20    17    18 ar
    21    18    19 ar
    22    19    20 ar
    23    20    21 ar
    24     1    22 1
    25     1    23 1
    26     1    24 1
    27     2    25 1
    28     3    26 1
    29     3    27 1
    30     3    28 1
    31     8    29 1
    32    11    30 1
    33    11    31 1
    34    17    32 1
    35    21    33 1
    36    18    34 1
    37    19    35 1
@<TRIPOS>SUBSTRUCTURE
     1 ZZM         1 TEMP              0 ****  ****    0 ROOT
