@<TRIPOS>MOLECULE
molecule
   60    65     1     0     0
SMALL
bcc


@<TRIPOS>ATOM
      1 CAT          0.0000     0.0000     0.0000 c3         1 ZZN      -0.054800
      2 CAP          1.5070     0.0000     0.0000 ca         1 ZZN      -0.064300
      3 CAQ          2.1990     0.0000     1.1950 ca         1 ZZN      -0.125000
      4 CAR          3.5820    -0.0000     1.1960 ca         1 ZZN      -0.110000
      5 CAJ          4.2760    -0.0010    -0.0000 ca         1 ZZN      -0.129000
      6 CAI          3.5900    -0.0010    -1.1990 ca         1 ZZN      -0.105000
      7 CAH          2.2010    -0.0060    -1.2020 ca         1 ZZN       0.003600
      8 NAG          1.5030    -0.0120    -2.4160 n          1 ZZN      -0.289500
      9 CAF          1.1680    -1.1900    -2.9910 c          1 ZZN       0.712100
     10 OAB          1.4630    -2.2520    -2.4750 o          1 ZZN      -0.610500
     11 CAE          0.4350    -1.1370    -4.2650 ca         1 ZZN      -0.206600
     12 CAD          0.0440    -2.2930    -4.9380 ca         1 ZZN      -0.003300
     13 CAA          0.3680    -3.6510    -4.3680 c3         1 ZZN      -0.047800
     14 CAC         -0.6420    -2.1860    -6.1290 ca         1 ZZN      -0.156000
     15 CAK         -0.9440    -0.9400    -6.6600 ca         1 ZZN      -0.090000
     16 CAL         -0.5670     0.2150    -6.0110 ca         1 ZZN      -0.125000
     17 CAM          0.1290     0.1320    -4.8020 ca         1 ZZN       0.199400
     18 NAN          0.5190     1.2440    -4.1300 nc         1 ZZN      -0.624100
     19 CAO          1.1620     1.1670    -3.0040 cd         1 ZZN       0.474900
     20 CAS          1.5540     2.4490    -2.3150 c3         1 ZZN       0.060000
     21 NAV          1.0930     3.5900    -3.1100 na         1 ZZN      -0.012800
     22 NAU         -0.1510     4.2170    -2.9790 nc         1 ZZN      -0.478100
     23 C6           1.8120     4.2100    -4.0880 ca         1 ZZN       0.553800
     24 N1           3.0270     4.0330    -4.6100 nb         1 ZZN      -0.810000
     25 C2           3.4620     4.8120    -5.5750 ca         1 ZZN       0.761900
     26 N3           2.7410     5.7980    -6.0780 nb         1 ZZN      -0.840000
     27 C4           1.5170     6.0530    -5.6250 ca         1 ZZN       0.793200
     28 NBK          0.7670     7.0850    -6.1530 nv         1 ZZN      -1.002500
     29 C5           1.0070     5.2470    -4.5930 ca         1 ZZN      -0.535500
     30 CBD         -0.2460     5.2040    -3.8390 cd         1 ZZN       0.441500
     31 CBC         -1.4070     6.1080    -4.0120 ca         1 ZZN      -0.054900
     32 CBB         -1.8650     6.4210    -5.2910 ca         1 ZZN      -0.168000
     33 CBJ         -2.0490     6.6450    -2.8960 ca         1 ZZN      -0.152000
     34 CBI         -3.1320     7.4870    -3.0610 ca         1 ZZN       0.149900
     35 F           -3.7520     8.0060    -1.9800 f          1 ZZN      -0.132900
     36 CBH         -3.5820     7.8010    -4.3320 ca         1 ZZN      -0.195000
     37 CBA         -2.9510     7.2660    -5.4480 ca         1 ZZN       0.128100
     38 OAZ         -3.3990     7.5720    -6.6930 oh         1 ZZN      -0.518100
     39 HAT1        -0.3610     0.4140     0.9340 hc         1 ZZN       0.051700
     40 HAT2        -0.3610     0.6020    -0.8250 hc         1 ZZN       0.051700
     41 HAT3        -0.3610    -1.0160    -0.1080 hc         1 ZZN       0.051700
     42 HAQ          1.6570     0.0010     2.1330 ha         1 ZZN       0.139000
     43 HAR          4.1220    -0.0000     2.1350 ha         1 ZZN       0.136000
     44 HAJ          5.3590     0.0010     0.0030 ha         1 ZZN       0.139000
     45 HAI          4.1350    -0.0030    -2.1360 ha         1 ZZN       0.146000
     46 HAA1        -0.0910    -3.7520    -3.3920 hc         1 ZZN       0.054700
     47 HAA2         1.4420    -3.7560    -4.2740 hc         1 ZZN       0.054700
     48 HAA3        -0.0140    -4.4200    -5.0280 hc         1 ZZN       0.054700
     49 HAC         -0.9480    -3.0830    -6.6550 ha         1 ZZN       0.137000
     50 HAK         -1.4840    -0.8750    -7.5970 ha         1 ZZN       0.134000
     51 HAL         -0.8090     1.1820    -6.4350 ha         1 ZZN       0.150000
     52 HAS1         2.6310     2.4900    -2.2150 h1         1 ZZN       0.096200
     53 HAS2         1.0980     2.4860    -1.3330 h1         1 ZZN       0.096200
     54 H2           4.4540     4.6380    -5.9740 h5         1 ZZN       0.061100
     55 HBK1         0.9610     7.4230    -7.0750 hn         1 ZZN       0.450800
     56 HBK2         0.0260     7.4910    -5.6170 hn         1 ZZN       0.450800
     57 HBB         -1.3720     6.0030    -6.1610 ha         1 ZZN       0.163000
     58 HBJ         -1.6810     6.4230    -1.9010 ha         1 ZZN       0.162000
     59 HBH         -4.4310     8.4620    -4.4570 ha         1 ZZN       0.158000
     60 HAZ         -4.1220     7.0080    -6.9150 ho         1 ZZN       0.428000
@<TRIPOS>BOND
     1     1     2 1
     2     2     3 ar
     3     2     7 ar
     4     3     4 ar
     5     4     5 ar
     6     5     6 ar
     7     6     7 ar
     8     7     8 1
     9     8     9 1
    10     8    19 1
    11     9    10 2
    12     9    11 1
    13    11    12 ar
    14    11    17 ar
    15    12    13 1
    16    12    14 ar
    17    14    15 ar
    18    15    16 ar
    19    16    17 ar
    20    17    18 1
    21    18    19 2
    22    19    20 1
    23    20    21 1
    24    21    22 1
    25    21    23 1
    26    22    30 2
    27    23    24 ar
    28    23    29 ar
    29    24    25 ar
    30    25    26 ar
    31    26    27 ar
    32    27    28 1
    33    27    29 ar
    34    29    30 1
    35    30    31 1
    36    31    32 ar
    37    31    33 ar
    38    32    37 ar
    39    33    34 ar
    40    34    35 1
    41    34    36 ar
    42    36    37 ar
    43    37    38 1
    44     1    39 1
    45     1    40 1
    46     1    41 1
    47     3    42 1
    48     4    43 1
    49     5    44 1
    50     6    45 1
    51    13    46 1
    52    13    47 1
    53    13    48 1
    54    14    49 1
    55    15    50 1
    56    16    51 1
    57    20    52 1
    58    20    53 1
    59    25    54 1
    60    28    55 1
    61    28    56 1
    62    32    57 1
    63    33    58 1
    64    36    59 1
    65    38    60 1
@<TRIPOS>SUBSTRUCTURE
     1 ZZN         1 TEMP              0 ****  ****    0 ROOT
