@<TRIPOS>MOLECULE
molecule
   60    65     1     0     0
SMALL
bcc


@<TRIPOS>ATOM
      1 CAT          0.0000     0.0000     0.0000 c3         1 ZZO      -0.054800
      2 CAL          1.5070     0.0000     0.0000 ca         1 ZZO      -0.064300
      3 CAM          2.1980     0.0000     1.1960 ca         1 ZZO      -0.126000
      4 CAE          3.5810    -0.0000     1.1970 ca         1 ZZO      -0.110000
      5 CAD          4.2760     0.0010     0.0020 ca         1 ZZO      -0.129000
      6 CAC          3.5920     0.0020    -1.1970 ca         1 ZZO      -0.105000
      7 CAK          2.2030    -0.0050    -1.2020 ca         1 ZZO       0.004600
      8 NAJ          1.5040    -0.0100    -2.4160 n          1 ZZO      -0.289500
      9 CAI          1.1710    -1.1880    -2.9930 c          1 ZZO       0.713100
     10 OAB          1.4660    -2.2500    -2.4760 o          1 ZZO      -0.610500
     11 CAH          0.4390    -1.1360    -4.2660 ca         1 ZZO      -0.206600
     12 CAG          0.0490    -2.2910    -4.9410 ca         1 ZZO      -0.003300
     13 CAA          0.3730    -3.6480    -4.3720 c3         1 ZZO      -0.047800
     14 CAF         -0.6360    -2.1840    -6.1310 ca         1 ZZO      -0.155000
     15 CAN         -0.9390    -0.9370    -6.6620 ca         1 ZZO      -0.089000
     16 CAO         -0.5630     0.2170    -6.0110 ca         1 ZZO      -0.124000
     17 CAP          0.1330     0.1340    -4.8040 ca         1 ZZO       0.198400
     18 NAQ          0.5220     1.2460    -4.1290 nc         1 ZZO      -0.623100
     19 CAR          1.1630     1.1690    -3.0030 cd         1 ZZO       0.473900
     20 CAS          1.5550     2.4510    -2.3140 c3         1 ZZO       0.059000
     21 NAV          1.0950     3.5930    -3.1080 na         1 ZZO      -0.013800
     22 NAU         -0.1500     4.2180    -2.9770 nc         1 ZZO      -0.477100
     23 C6           1.8140     4.2130    -4.0850 ca         1 ZZO       0.548800
     24 N1           3.0280     4.0360    -4.6060 nb         1 ZZO      -0.802000
     25 C2           3.4650     4.8150    -5.5710 ca         1 ZZO       0.755900
     26 N3           2.7430     5.8020    -6.0730 nb         1 ZZO      -0.829000
     27 C4           1.5200     6.0570    -5.6190 ca         1 ZZO       0.791200
     28 NBG          0.7700     7.0900    -6.1490 nv         1 ZZO      -1.019500
     29 C5           1.0090     5.2510    -4.5890 ca         1 ZZO      -0.526500
     30 CAZ         -0.2440     5.2060    -3.8360 cd         1 ZZO       0.443500
     31 CBE         -1.4060     6.1100    -4.0100 ca         1 ZZO      -0.081900
     32 CBD         -1.8630     6.4240    -5.2890 ca         1 ZZO      -0.148000
     33 CBH         -2.9450     7.2670    -5.4470 ca         1 ZZO       0.108900
     34 F           -3.3890     7.5710    -6.6860 f          1 ZZO      -0.127900
     35 CBI         -3.5790     7.8020    -4.3300 ca         1 ZZO       0.078100
     36 OBL         -4.6440     8.6310    -4.4880 oh         1 ZZO      -0.505100
     37 CBJ         -3.1260     7.4900    -3.0560 ca         1 ZZO      -0.141000
     38 CBF         -2.0480     6.6450    -2.8930 ca         1 ZZO      -0.102000
     39 HAT1        -0.3610     0.4070     0.9370 hc         1 ZZO       0.052033
     40 HAT2        -0.3610    -1.0150    -0.1160 hc         1 ZZO       0.052033
     41 HAT3        -0.3610     0.6080    -0.8210 hc         1 ZZO       0.052033
     42 HAM          1.6560    -0.0010     2.1340 ha         1 ZZO       0.139000
     43 HAE          4.1210    -0.0000     2.1360 ha         1 ZZO       0.135000
     44 HAD          5.3590     0.0030     0.0070 ha         1 ZZO       0.138000
     45 HAC          4.1380     0.0000    -2.1330 ha         1 ZZO       0.146000
     46 HAA1         1.4470    -3.7510    -4.2730 hc         1 ZZO       0.054367
     47 HAA2        -0.0040    -4.4170    -5.0350 hc         1 ZZO       0.054367
     48 HAA3        -0.0910    -3.7520    -3.3980 hc         1 ZZO       0.054367
     49 HAF         -0.9410    -3.0800    -6.6580 ha         1 ZZO       0.137000
     50 HAN         -1.4780    -0.8710    -7.5990 ha         1 ZZO       0.135000
     51 HAO         -0.8050     1.1850    -6.4350 ha         1 ZZO       0.151000
     52 HAS1         2.6330     2.4910    -2.2140 h1         1 ZZO       0.095700
     53 HAS2         1.1000     2.4870    -1.3320 h1         1 ZZO       0.095700
     54 H2           4.4570     4.6420    -5.9690 h5         1 ZZO       0.062100
     55 HBG1         0.1760     7.6330    -5.5540 hn         1 ZZO       0.447800
     56 HBG2         0.8120     7.2870    -7.1290 hn         1 ZZO       0.447800
     57 HBD         -1.3940     5.9760    -6.1570 ha         1 ZZO       0.166000
     58 HBF         -1.6950     6.4030    -1.8980 ha         1 ZZO       0.152000
     59 HBL         -4.3670     9.5240    -4.3710 ho         1 ZZO       0.423000
     60 HBJ         -3.6220     7.9070    -2.1890 ha         1 ZZO       0.151000
@<TRIPOS>BOND
     1     1     2 1
     2     2     3 ar
     3     2     7 ar
     4     3     4 ar
     5     4     5 ar
     6     5     6 ar
     7     6     7 ar
     8     7     8 1
     9     8     9 1
    10     8    19 1
    11     9    10 2
    12     9    11 1
    13    11    12 ar
    14    11    17 ar
    15    12    13 1
    16    12    14 ar
    17    14    15 ar
    18    15    16 ar
    19    16    17 ar
    20    17    18 1
    21    18    19 2
    22    19    20 1
    23    20    21 1
    24    21    22 1
    25    21    23 1
    26    22    30 2
    27    23    24 ar
    28    23    29 ar
    29    24    25 ar
    30    25    26 ar
    31    26    27 ar
    32    27    28 1
    33    27    29 ar
    34    29    30 1
    35    30    31 1
    36    31    32 ar
    37    31    38 ar
    38    32    33 ar
    39    33    34 1
    40    33    35 ar
    41    35    36 1
    42    35    37 ar
    43    37    38 ar
    44     1    39 1
    45     1    40 1
    46     1    41 1
    47     3    42 1
    48     4    43 1
    49     5    44 1
    50     6    45 1
    51    13    46 1
    52    13    47 1
    53    13    48 1
    54    14    49 1
    55    15    50 1
    56    16    51 1
    57    20    52 1
    58    20    53 1
    59    25    54 1
    60    28    55 1
    61    28    56 1
    62    32    57 1
    63    38    58 1
    64    36    59 1
    65    37    60 1
@<TRIPOS>SUBSTRUCTURE
     1 ZZO         1 TEMP              0 ****  ****    0 ROOT
