@<TRIPOS>MOLECULE
ZZO
   60    65     1     0     0
SMALL
bcc


@<TRIPOS>ATOM
      1 CAT          0.0000     0.0000     0.0000 c3         1 ZZO       0.045200
      2 CAL          1.5070     0.0000     0.0000 ca         1 ZZO      -0.058300
      3 CAM          2.1980     0.0000     1.1960 ca         1 ZZO      -0.099000
      4 CAE          3.5810    -0.0000     1.1970 ca         1 ZZO      -0.072000
      5 CAD          4.2760     0.0010     0.0020 ca         1 ZZO      -0.103000
      6 CAC          3.5920     0.0020    -1.1970 ca         1 ZZO      -0.067000
      7 CAK          2.2030    -0.0050    -1.2020 ca         1 ZZO      -0.137400
      8 NAJ          1.5040    -0.0100    -2.4160 n          1 ZZO       0.166500
      9 CAI          1.1710    -1.1880    -2.9930 c          1 ZZO       0.621100
     10 OAB          1.4660    -2.2500    -2.4760 o          1 ZZO      -0.655500
     11 CAH          0.4390    -1.1360    -4.2660 ca         1 ZZO      -0.215600
     12 CAG          0.0490    -2.2910    -4.9410 ca         1 ZZO       0.003700
     13 CAA          0.3730    -3.6480    -4.3720 c3         1 ZZO       0.049200
     14 CAF         -0.6360    -2.1840    -6.1310 ca         1 ZZO      -0.133000
     15 CAN         -0.9390    -0.9370    -6.6620 ca         1 ZZO      -0.057000
     16 CAO         -0.5630     0.2170    -6.0110 ca         1 ZZO      -0.103000
     17 CAP          0.1330     0.1340    -4.8040 ca         1 ZZO       0.156400
     18 NAQ          0.5220     1.2460    -4.1290 nc         1 ZZO      -0.526100
     19 CAR          1.1630     1.1690    -3.0030 cd         1 ZZO       0.267900
     20 CAS          1.5550     2.4510    -2.3140 c3         1 ZZO      -0.038000
     21 NAV          1.0950     3.5930    -3.1080 na         1 ZZO       0.406200
     22 NAU         -0.1500     4.2180    -2.9770 nc         1 ZZO      -0.614100
     23 C6           1.8140     4.2130    -4.0850 ca         1 ZZO       0.355800
     24 N1           3.0280     4.0360    -4.6060 nb         1 ZZO      -0.693000
     25 C2           3.4650     4.8150    -5.5710 ca         1 ZZO       0.708900
     26 N3           2.7430     5.8020    -6.0730 nb         1 ZZO      -0.737000
     27 C4           1.5200     6.0570    -5.6190 ca         1 ZZO       0.613200
     28 NBG          0.7700     7.0900    -6.1490 nv         1 ZZO      -0.549500
     29 C5           1.0090     5.2510    -4.5890 ca         1 ZZO      -0.542500
     30 CAZ         -0.2440     5.2060    -3.8360 cd         1 ZZO       0.480500
     31 CBE         -1.4060     6.1100    -4.0100 ca         1 ZZO      -0.087900
     32 CBD         -1.8630     6.4240    -5.2890 ca         1 ZZO      -0.123000
     33 CBH         -2.9450     7.2670    -5.4470 ca         1 ZZO       0.074900
     34 F           -3.3890     7.5710    -6.6860 f          1 ZZO      -0.118900
     35 CBI         -3.5790     7.8020    -4.3300 ca         1 ZZO       0.104100
     36 OBL         -4.6440     8.6310    -4.4880 oh         1 ZZO      -0.484100
     37 CBJ         -3.1260     7.4900    -3.0560 ca         1 ZZO      -0.125000
     38 CBF         -2.0480     6.6450    -2.8930 ca         1 ZZO      -0.065000
     39 HAT1        -0.3610     0.4070     0.9370 hc         1 ZZO       0.018033
     40 HAT2        -0.3610    -1.0150    -0.1160 hc         1 ZZO       0.018033
     41 HAT3        -0.3610     0.6080    -0.8210 hc         1 ZZO       0.018033
     42 HAM          1.6560    -0.0010     2.1340 ha         1 ZZO       0.112000
     43 HAE          4.1210    -0.0000     2.1360 ha         1 ZZO       0.105000
     44 HAD          5.3590     0.0030     0.0070 ha         1 ZZO       0.110000
     45 HAC          4.1380     0.0000    -2.1330 ha         1 ZZO       0.115000
     46 HAA1         1.4470    -3.7510    -4.2730 hc         1 ZZO       0.021033
     47 HAA2        -0.0040    -4.4170    -5.0350 hc         1 ZZO       0.021033
     48 HAA3        -0.0910    -3.7520    -3.3980 hc         1 ZZO       0.021033
     49 HAF         -0.9410    -3.0800    -6.6580 ha         1 ZZO       0.112000
     50 HAN         -1.4780    -0.8710    -7.5990 ha         1 ZZO       0.103000
     51 HAO         -0.8050     1.1850    -6.4350 ha         1 ZZO       0.120000
     52 HAS1         2.6330     2.4910    -2.2140 h1         1 ZZO       0.057200
     53 HAS2         1.1000     2.4870    -1.3320 h1         1 ZZO       0.057200
     54 H2           4.4570     4.6420    -5.9690 h5         1 ZZO      -0.004900
     55 HBG1         0.1760     7.6330    -5.5540 hn         1 ZZO       0.282800
     56 HBG2         0.8120     7.2870    -7.1290 hn         1 ZZO       0.282800
     57 HBD         -1.3940     5.9760    -6.1570 ha         1 ZZO       0.135000
     58 HBF         -1.6950     6.4030    -1.8980 ha         1 ZZO       0.120000
     59 HBL         -4.3670     9.5240    -4.3710 ho         1 ZZO       0.405000
     60 HBJ         -3.6220     7.9070    -2.1890 ha         1 ZZO       0.120000
@<TRIPOS>BOND
     1     1     2 1   
     2     1    39 1   
     3     1    40 1   
     4     1    41 1   
     5     2     3 ar  
     6     2     7 ar  
     7     3     4 ar  
     8     3    42 1   
     9     4     5 ar  
    10     4    43 1   
    11     5     6 ar  
    12     5    44 1   
    13     6     7 ar  
    14     6    45 1   
    15     7     8 1   
    16     8     9 1   
    17     8    19 1   
    18     9    10 2   
    19     9    11 1   
    20    11    12 ar  
    21    11    17 ar  
    22    12    13 1   
    23    12    14 ar  
    24    13    46 1   
    25    13    47 1   
    26    13    48 1   
    27    14    15 ar  
    28    14    49 1   
    29    15    16 ar  
    30    15    50 1   
    31    16    17 ar  
    32    16    51 1   
    33    17    18 1   
    34    18    19 2   
    35    19    20 1   
    36    20    21 1   
    37    20    52 1   
    38    20    53 1   
    39    21    22 1   
    40    21    23 1   
    41    22    30 2   
    42    23    24 ar  
    43    23    29 ar  
    44    24    25 ar  
    45    25    26 ar  
    46    25    54 1   
    47    26    27 ar  
    48    27    28 1   
    49    27    29 ar  
    50    28    55 1   
    51    28    56 1   
    52    29    30 1   
    53    30    31 1   
    54    31    32 ar  
    55    31    38 ar  
    56    32    33 ar  
    57    32    57 1   
    58    33    34 1   
    59    33    35 ar  
    60    35    36 1   
    61    35    37 ar  
    62    36    59 1   
    63    37    38 ar  
    64    37    60 1   
    65    38    58 1   
@<TRIPOS>SUBSTRUCTURE
     1 ZZO         1 TEMP              0 ****  ****    0 ROOT
