@<TRIPOS>MOLECULE
ZZP
   51    54     1     0     0
SMALL
bcc


@<TRIPOS>ATOM
      1 CAY          0.0000     0.0000     0.0000 c3         1 ZZP       0.239700
      2 OBE          1.4300     0.0000     0.0000 os         1 ZZP      -0.300900
      3 CAK          2.0430     0.0000     1.2060 ce         1 ZZP       0.292100
      4 CBF          1.2630    -0.0020     2.3400 cf         1 ZZP      -0.492600
      5 CAW          3.4510    -0.0050     1.2420 ce         1 ZZP      -0.311000
      6 CBB          4.1320    -0.0070     2.4020 c2         1 ZZP       0.181900
      7 OBC          5.4810    -0.0110     2.4070 os         1 ZZP      -0.290900
      8 CBD          6.1350    -0.0140     1.1370 c3         1 ZZP       0.244700
      9 CBA          3.3570    -0.0030     3.7020 c3         1 ZZP      -0.017500
     10 CAZ          1.8450    -0.0030     3.6110 cf         1 ZZP       0.538600
     11 NAX          1.0990    -0.0030     4.6990 ne         1 ZZP      -0.627700
     12 CAR         -0.2490     0.1130     4.5970 ca         1 ZZP       0.450000
     13 NAS         -1.0110    -0.9710     4.5640 nb         1 ZZP      -0.557000
     14 CAT         -2.3420    -0.8490     4.4640 ca         1 ZZP       0.253300
     15 CAU         -3.1590    -1.9930     4.4280 ca         1 ZZP      -0.131300
     16 CAV         -4.5100    -1.8570     4.3270 ca         1 ZZP      -0.103000
     17 CAQ         -5.0980    -0.5980     4.2580 ca         1 ZZP      -0.092000
     18 CAP         -4.3370     0.5320     4.2910 ca         1 ZZP      -0.145300
     19 CAO         -2.9390     0.4320     4.3940 ca         1 ZZP       0.278300
     20 NAN         -2.1810     1.5380     4.4280 nb         1 ZZP      -0.600000
     21 CAM         -0.8730     1.4380     4.5300 ca         1 ZZP       0.432900
     22 NAL         -0.0880     2.5780     4.5690 nu         1 ZZP      -0.467800
     23 SAI         -0.7950     4.0730     4.4920 sy         1 ZZP       1.036200
     24 OAJ          0.2580     5.0210     4.5900 o          1 ZZP      -0.574800
     25 OAH         -1.7060     4.0310     3.4020 o          1 ZZP      -0.574800
     26 CAG         -1.7710     4.2630     5.9480 ca         1 ZZP      -0.173500
     27 CAF         -1.2130     4.8120     7.0870 ca         1 ZZP       0.036500
     28 CAE         -1.9770     4.9610     8.2290 ca         1 ZZP      -0.171000
     29 CAB         -3.3030     4.5610     8.2310 ca         1 ZZP       0.157900
     30 FAA         -4.0510     4.7070     9.3460 f          1 ZZP      -0.125900
     31 CAC         -3.8610     4.0110     7.0890 ca         1 ZZP      -0.171000
     32 CAD         -3.0970     3.8680     5.9470 ca         1 ZZP       0.036500
     33 HAY1        -0.3610     0.9050     0.4730 h1         1 ZZP       0.007033
     34 HAY2        -0.3610    -0.0430    -1.0200 h1         1 ZZP       0.007033
     35 HAY3        -0.3610    -0.8620     0.5470 h1         1 ZZP       0.007033
     36 HBF          0.1840    -0.0050     2.2460 ha         1 ZZP       0.152000
     37 HAW          4.0010    -0.0080     0.3090 ha         1 ZZP       0.141000
     38 HBA1         3.6540     0.8770     4.2600 hc         1 ZZP       0.052200
     39 HBA2         3.6530    -0.8790     4.2660 hc         1 ZZP       0.052200
     40 HBD1         7.2080    -0.0180     1.2830 h1         1 ZZP       0.005367
     41 HBD2         5.8490     0.8710     0.5810 h1         1 ZZP       0.005367
     42 HBD3         5.8430    -0.8980     0.5830 h1         1 ZZP       0.005367
     43 HAU         -2.7160    -2.9800     4.4810 ha         1 ZZP       0.118000
     44 HAV         -5.1360    -2.7410     4.3000 ha         1 ZZP       0.104000
     45 HAQ         -6.1750    -0.5140     4.1780 ha         1 ZZP       0.104000
     46 HAP         -4.8080     1.5060     4.2360 ha         1 ZZP       0.116000
     47 HAL          0.9030     2.4990     4.6850 hn         1 ZZP       0.354800
     48 HAF         -0.1760     5.1240     7.0850 ha         1 ZZP       0.134500
     49 HAD         -3.5330     3.4380     5.0530 ha         1 ZZP       0.134500
     50 HAE         -1.5390     5.3910     9.1210 ha         1 ZZP       0.124000
     51 HAC         -4.8990     3.7000     7.0890 ha         1 ZZP       0.124000
@<TRIPOS>BOND
     1     1     2 1   
     2     1    33 1   
     3     1    34 1   
     4     1    35 1   
     5     2     3 1   
     6     3     4 2   
     7     3     5 1   
     8     4    10 1   
     9     4    36 1   
    10     5     6 2   
    11     5    37 1   
    12     6     7 1   
    13     6     9 1   
    14     7     8 1   
    15     8    40 1   
    16     8    41 1   
    17     8    42 1   
    18     9    10 1   
    19     9    38 1   
    20     9    39 1   
    21    10    11 2   
    22    11    12 1   
    23    12    13 ar  
    24    12    21 ar  
    25    13    14 ar  
    26    14    15 ar  
    27    14    19 ar  
    28    15    16 ar  
    29    15    43 1   
    30    16    17 ar  
    31    16    44 1   
    32    17    18 ar  
    33    17    45 1   
    34    18    19 ar  
    35    18    46 1   
    36    19    20 ar  
    37    20    21 ar  
    38    21    22 1   
    39    22    23 1   
    40    22    47 1   
    41    23    24 2   
    42    23    25 2   
    43    23    26 1   
    44    26    27 ar  
    45    26    32 ar  
    46    27    28 ar  
    47    27    48 1   
    48    28    29 ar  
    49    28    50 1   
    50    29    30 1   
    51    29    31 ar  
    52    31    32 ar  
    53    31    51 1   
    54    32    49 1   
@<TRIPOS>SUBSTRUCTURE
     1 ZZP         1 TEMP              0 ****  ****    0 ROOT
