@<TRIPOS>MOLECULE
ZZQ
   57    61     1     0     0
SMALL
bcc


@<TRIPOS>ATOM
      1 CBC          0.0000     0.0000     0.0000 c3         1 ZZQ       0.246700
      2 OBB          1.4300     0.0000     0.0000 os         1 ZZQ      -0.305900
      3 CBG          2.0470     0.0000     1.2110 ca         1 ZZQ       0.197100
      4 CBH          1.2940     0.0020     2.3740 ca         1 ZZQ      -0.209000
      5 CBE          1.9240     0.0020     3.6050 ca         1 ZZQ      -0.024000
      6 CBD          3.3050     0.0020     3.6790 ca         1 ZZQ      -0.141000
      7 CAU          4.0620     0.0010     2.5240 ca         1 ZZQ      -0.014000
      8 CBF          3.4380    -0.0060     1.2850 ca         1 ZZQ      -0.189400
      9 NAT          4.2050    -0.0130     0.1100 n          1 ZZQ       0.255500
     10 CAS          4.5700    -1.1810    -0.4550 c          1 ZZQ       0.590700
     11 OBA          4.2430    -2.2420     0.0510 o          1 ZZQ      -0.675500
     12 CAR          5.3360    -1.1610    -1.6390 cc         1 ZZQ      -0.265400
     13 CAQ          5.7360    -2.4780    -2.2460 c3         1 ZZQ       0.062800
     14 CAP          6.1680    -2.2910    -3.7000 c3         1 ZZQ      -0.032400
     15 CAB          7.2010    -1.1590    -3.7540 c3         1 ZZQ      -0.029400
     16 CAC          6.4900     0.1570    -3.4430 c3         1 ZZQ       0.031800
     17 CAD          5.6830     0.0370    -2.1770 cd         1 ZZQ       0.156400
     18 NAE          5.3000     1.1690    -1.5730 nd         1 ZZQ      -0.603300
     19 CAF          4.5820     1.1610    -0.4710 cc         1 ZZQ       0.332800
     20 SAG          4.1050     2.6890     0.2670 ss         1 ZZQ      -0.217300
     21 CAH          4.8600     3.8490    -0.8980 c3         1 ZZQ       0.005700
     22 CAI          4.5750     5.2610    -0.4570 c          1 ZZQ       0.574100
     23 OAA          3.9260     5.4630     0.5480 o          1 ZZQ      -0.606100
     24 NAJ          5.0410     6.3010    -1.1770 ns         1 ZZQ      -0.029100
     25 CAK          4.6870     7.6070    -0.8310 ca         1 ZZQ      -0.070400
     26 CAL          5.5850     8.6320    -1.0240 ca         1 ZZQ      -0.178300
     27 CAM          5.2260     9.9430    -0.6750 ca         1 ZZQ       0.280300
     28 NAN          6.0770    10.9610    -0.8500 nb         1 ZZQ      -0.543000
     29 CAO          5.7140    12.1790    -0.5150 ca         1 ZZQ       0.294900
     30 CAZ          4.4490    12.4220     0.0220 ca         1 ZZQ       0.281900
     31 NAY          3.5960    11.4390     0.2050 nb         1 ZZQ      -0.528000
     32 CAX          3.9400    10.1920    -0.1290 ca         1 ZZQ       0.250300
     33 CAW          3.0460     9.1200     0.0540 ca         1 ZZQ      -0.112300
     34 CAV          3.4170     7.8620    -0.2970 ca         1 ZZQ      -0.096000
     35 HBC1        -0.3610    -0.8800     0.5180 h1         1 ZZQ       0.000700
     36 HBC2        -0.3610     0.8890     0.5030 h1         1 ZZQ       0.000700
     37 HBC3        -0.3610    -0.0080    -1.0210 h1         1 ZZQ       0.000700
     38 HBH          0.2120     0.0020     2.3200 ha         1 ZZQ       0.125000
     39 HBE          1.3340     0.0030     4.5130 ha         1 ZZQ       0.102000
     40 HBD          3.7940     0.0040     4.6460 ha         1 ZZQ       0.111000
     41 HAU          5.1440    -0.0020     2.5850 ha         1 ZZQ       0.111000
     42 HAQ1         6.5610    -2.8950    -1.6800 hc         1 ZZQ       0.031200
     43 HAQ2         4.8920    -3.1570    -2.2100 hc         1 ZZQ       0.031200
     44 HAP1         5.3080    -2.0290    -4.3040 hc         1 ZZQ       0.017200
     45 HAP2         6.6140    -3.2080    -4.0670 hc         1 ZZQ       0.017200
     46 HAB1         7.9590    -1.3370    -3.0000 hc         1 ZZQ       0.019700
     47 HAB2         7.6160    -1.1080    -4.7530 hc         1 ZZQ       0.019700
     48 HAC1         7.2380     0.9290    -3.3040 hc         1 ZZQ       0.028700
     49 HAC2         5.8170     0.3870    -4.2600 hc         1 ZZQ       0.028700
     50 HAH1         5.9310     3.6880    -0.9250 h1         1 ZZQ       0.066200
     51 HAH2         4.4450     3.6890    -1.8860 h1         1 ZZQ       0.066200
     52 HAJ          5.6330     6.1360    -1.9680 hn         1 ZZQ       0.171500
     53 HAL          6.5150     8.4460    -1.5470 ha         1 ZZQ       0.122000
     54 HAV          2.7190     7.0440    -0.1660 ha         1 ZZQ       0.141000
     55 HAO          6.4030    13.0020    -0.6580 h4         1 ZZQ      -0.012900
     56 HAZ          4.1680    13.4330     0.2920 h4         1 ZZQ      -0.011900
     57 HAW          2.0610     9.3010     0.4660 ha         1 ZZQ       0.122000
@<TRIPOS>BOND
     1     1     2 1   
     2     1    35 1   
     3     1    36 1   
     4     1    37 1   
     5     2     3 1   
     6     3     4 ar  
     7     3     8 ar  
     8     4     5 ar  
     9     4    38 1   
    10     5     6 ar  
    11     5    39 1   
    12     6     7 ar  
    13     6    40 1   
    14     7     8 ar  
    15     7    41 1   
    16     8     9 1   
    17     9    10 1   
    18     9    19 1   
    19    10    11 2   
    20    10    12 1   
    21    12    13 1   
    22    12    17 2   
    23    13    14 1   
    24    13    42 1   
    25    13    43 1   
    26    14    15 1   
    27    14    44 1   
    28    14    45 1   
    29    15    16 1   
    30    15    46 1   
    31    15    47 1   
    32    16    17 1   
    33    16    48 1   
    34    16    49 1   
    35    17    18 1   
    36    18    19 2   
    37    19    20 1   
    38    20    21 1   
    39    21    22 1   
    40    21    50 1   
    41    21    51 1   
    42    22    23 2   
    43    22    24 1   
    44    24    25 1   
    45    24    52 1   
    46    25    26 ar  
    47    25    34 ar  
    48    26    27 ar  
    49    26    53 1   
    50    27    28 ar  
    51    27    32 ar  
    52    28    29 ar  
    53    29    30 ar  
    54    29    55 1   
    55    30    31 ar  
    56    30    56 1   
    57    31    32 ar  
    58    32    33 ar  
    59    33    34 ar  
    60    33    57 1   
    61    34    54 1   
@<TRIPOS>SUBSTRUCTURE
     1 ZZQ         1 TEMP              0 ****  ****    0 ROOT
