@<TRIPOS>MOLECULE
molecule
   57    61     1     0     0
SMALL
bcc


@<TRIPOS>ATOM
      1 CBC          0.0000     0.0000     0.0000 c3         1 ZZQ       0.127700
      2 OBB          1.4300     0.0000     0.0000 os         1 ZZQ      -0.318900
      3 CBG          2.0470     0.0000     1.2110 ca         1 ZZQ       0.171100
      4 CBH          1.2940     0.0020     2.3740 ca         1 ZZQ      -0.219000
      5 CBE          1.9240     0.0020     3.6050 ca         1 ZZQ      -0.069000
      6 CBD          3.3050     0.0020     3.6790 ca         1 ZZQ      -0.164000
      7 CAU          4.0620     0.0010     2.5240 ca         1 ZZQ      -0.060000
      8 CBF          3.4380    -0.0060     1.2850 ca         1 ZZQ      -0.028400
      9 NAT          4.2050    -0.0130     0.1100 n          1 ZZQ      -0.237500
     10 CAS          4.5700    -1.1810    -0.4550 c          1 ZZQ       0.698700
     11 OBA          4.2430    -2.2420     0.0510 o          1 ZZQ      -0.628500
     12 CAR          5.3360    -1.1610    -1.6390 cc         1 ZZQ      -0.258400
     13 CAQ          5.7360    -2.4780    -2.2460 c3         1 ZZQ      -0.008200
     14 CAP          6.1680    -2.2910    -3.7000 c3         1 ZZQ      -0.085400
     15 CAB          7.2010    -1.1590    -3.7540 c3         1 ZZQ      -0.084400
     16 CAC          6.4900     0.1570    -3.4430 c3         1 ZZQ      -0.027200
     17 CAD          5.6830     0.0370    -2.1770 cd         1 ZZQ       0.199400
     18 NAE          5.3000     1.1690    -1.5730 nd         1 ZZQ      -0.704300
     19 CAF          4.5820     1.1610    -0.4710 cc         1 ZZQ       0.507800
     20 SAG          4.1050     2.6890     0.2670 ss         1 ZZQ      -0.068300
     21 CAH          4.8600     3.8490    -0.8980 c3         1 ZZQ      -0.104300
     22 CAI          4.5750     5.2610    -0.4570 c          1 ZZQ       0.673100
     23 OAA          3.9260     5.4630     0.5480 o          1 ZZQ      -0.577100
     24 NAJ          5.0410     6.3010    -1.1770 ns         1 ZZQ      -0.473100
     25 CAK          4.6870     7.6070    -0.8310 ca         1 ZZQ       0.074600
     26 CAL          5.5850     8.6320    -1.0240 ca         1 ZZQ      -0.204300
     27 CAM          5.2260     9.9430    -0.6750 ca         1 ZZQ       0.318300
     28 NAN          6.0770    10.9610    -0.8500 nb         1 ZZQ      -0.647000
     29 CAO          5.7140    12.1790    -0.5150 ca         1 ZZQ       0.306900
     30 CAZ          4.4490    12.4220     0.0220 ca         1 ZZQ       0.294900
     31 NAY          3.5960    11.4390     0.2050 nb         1 ZZQ      -0.635000
     32 CAX          3.9400    10.1920    -0.1290 ca         1 ZZQ       0.287300
     33 CAW          3.0460     9.1200     0.0540 ca         1 ZZQ      -0.141300
     34 CAV          3.4170     7.8620    -0.2970 ca         1 ZZQ      -0.118000
     35 HBC1        -0.3610    -0.8800     0.5180 h1         1 ZZQ       0.045033
     36 HBC2        -0.3610     0.8890     0.5030 h1         1 ZZQ       0.045033
     37 HBC3        -0.3610    -0.0080    -1.0210 h1         1 ZZQ       0.045033
     38 HBH          0.2120     0.0020     2.3200 ha         1 ZZQ       0.142000
     39 HBE          1.3340     0.0030     4.5130 ha         1 ZZQ       0.135000
     40 HBD          3.7940     0.0040     4.6460 ha         1 ZZQ       0.139000
     41 HAU          5.1440    -0.0020     2.5850 ha         1 ZZQ       0.147000
     42 HAQ1         6.5610    -2.8950    -1.6800 hc         1 ZZQ       0.061700
     43 HAQ2         4.8920    -3.1570    -2.2100 hc         1 ZZQ       0.061700
     44 HAP1         5.3080    -2.0290    -4.3040 hc         1 ZZQ       0.046200
     45 HAP2         6.6140    -3.2080    -4.0670 hc         1 ZZQ       0.046200
     46 HAB1         7.9590    -1.3370    -3.0000 hc         1 ZZQ       0.049200
     47 HAB2         7.6160    -1.1080    -4.7530 hc         1 ZZQ       0.049200
     48 HAC1         7.2380     0.9290    -3.3040 hc         1 ZZQ       0.062200
     49 HAC2         5.8170     0.3870    -4.2600 hc         1 ZZQ       0.062200
     50 HAH1         5.9310     3.6880    -0.9250 h1         1 ZZQ       0.100200
     51 HAH2         4.4450     3.6890    -1.8860 h1         1 ZZQ       0.100200
     52 HAJ          5.6330     6.1360    -1.9680 hn         1 ZZQ       0.331500
     53 HAL          6.5150     8.4460    -1.5470 ha         1 ZZQ       0.150000
     54 HAV          2.7190     7.0440    -0.1660 ha         1 ZZQ       0.165000
     55 HAO          6.4030    13.0020    -0.6580 h4         1 ZZQ       0.031100
     56 HAZ          4.1680    13.4330     0.2920 h4         1 ZZQ       0.031100
     57 HAW          2.0610     9.3010     0.4660 ha         1 ZZQ       0.157000
@<TRIPOS>BOND
     1     1     2 1
     2     2     3 1
     3     3     4 ar
     4     3     8 ar
     5     4     5 ar
     6     5     6 ar
     7     6     7 ar
     8     7     8 ar
     9     8     9 1
    10     9    10 1
    11     9    19 1
    12    10    11 2
    13    10    12 1
    14    12    13 1
    15    12    17 2
    16    13    14 1
    17    14    15 1
    18    15    16 1
    19    16    17 1
    20    17    18 1
    21    18    19 2
    22    19    20 1
    23    20    21 1
    24    21    22 1
    25    22    23 2
    26    22    24 1
    27    24    25 1
    28    25    26 ar
    29    25    34 ar
    30    26    27 ar
    31    27    28 ar
    32    27    32 ar
    33    28    29 ar
    34    29    30 ar
    35    30    31 ar
    36    31    32 ar
    37    32    33 ar
    38    33    34 ar
    39     1    35 1
    40     1    36 1
    41     1    37 1
    42     4    38 1
    43     5    39 1
    44     6    40 1
    45     7    41 1
    46    13    42 1
    47    13    43 1
    48    14    44 1
    49    14    45 1
    50    15    46 1
    51    15    47 1
    52    16    48 1
    53    16    49 1
    54    21    50 1
    55    21    51 1
    56    24    52 1
    57    26    53 1
    58    34    54 1
    59    29    55 1
    60    30    56 1
    61    33    57 1
@<TRIPOS>SUBSTRUCTURE
     1 ZZQ         1 TEMP              0 ****  ****    0 ROOT
