@<TRIPOS>MOLECULE
molecule
   16    17     1     0     0
SMALL
bcc


@<TRIPOS>ATOM
      1 NAC          0.0000     0.0000     0.0000 n2         1 ZZR      -0.476800
      2 NAF          1.4030     0.0000     0.0000 na         1 ZZR      -0.106400
      3 CAI          1.7880     0.0000     1.3150 cc         1 ZZR       0.622000
      4 NAD          2.8540    -0.0000     2.1310 nc         1 ZZR      -0.710000
      5 CAG          2.4550     0.0000     3.3840 cd         1 ZZR       0.863400
      6 NAA          3.2750    -0.0000     4.4950 nv         1 ZZR      -1.021500
      7 NAE          1.0960     0.0000     3.3960 na         1 ZZR      -0.349200
      8 NAJ          0.6860     0.0000     2.0530 na         1 ZZR      -0.297000
      9 CAH         -0.3890     0.0000     1.2500 cc         1 ZZR       0.739400
     10 NAB         -1.7190     0.0000     1.6800 nv         1 ZZR      -0.982500
     11 HAF          2.0030    -0.0000    -0.8010 hn         1 ZZR       0.404700
     12 HAA1         3.5820    -0.8670     4.8910 hn         1 ZZR       0.490800
     13 HAA2         3.5830     0.8670     4.8900 hn         1 ZZR       0.490800
     14 HAE          0.5040     0.0000     4.2030 hn         1 ZZR       0.368700
     15 HAB1        -2.4620     0.0000     1.0100 hn         1 ZZR       0.481800
     16 HAB2        -1.9280     0.0000     2.6590 hn         1 ZZR       0.481800
@<TRIPOS>BOND
     1     1     2 1
     2     1     9 2
     3     2     3 2
     4     3     4 1
     5     3     8 1
     6     4     5 2
     7     5     6 1
     8     5     7 1
     9     7     8 1
    10     8     9 1
    11     9    10 1
    12     2    11 1
    13     6    12 1
    14     6    13 1
    15     7    14 1
    16    10    15 1
    17    10    16 1
@<TRIPOS>SUBSTRUCTURE
     1 ZZR         1 TEMP              0 ****  ****    0 ROOT
