@<TRIPOS>MOLECULE
ZZS
   13    13     1     0     0
SMALL
bcc


@<TRIPOS>ATOM
      1 NAA          0.0000     0.0000     0.0000 nv         1 ZZS      -0.495500
      2 CAG          1.3790     0.0000     0.0000 ca         1 ZZS       0.768900
      3 NAF          2.0450     0.0000     1.1500 nb         1 ZZS      -0.804000
      4 NAD          2.0470    -0.0050    -1.1520 nb         1 ZZS      -0.794000
      5 CAC          3.3680    -0.0050    -1.1530 ca         1 ZZS       0.746900
      6 NAE          4.0320    -0.0010    -0.0110 nb         1 ZZS      -0.794000
      7 CAH          3.3740    -0.0010     1.1460 ca         1 ZZS       0.768900
      8 NAB          4.0690    -0.0010     2.3370 nv         1 ZZS      -0.495500
      9 HAA1        -0.5000     0.5100     0.7010 hn         1 ZZS       0.275550
     10 HAA2        -0.5000    -0.4840    -0.7190 hn         1 ZZS       0.275550
     11 HAC          3.9070    -0.0070    -2.0920 h5         1 ZZS      -0.003900
     12 HAB1         3.5890    -0.1860     3.1960 hn         1 ZZS       0.275550
     13 HAB2         5.0580     0.1470     2.3390 hn         1 ZZS       0.275550
@<TRIPOS>BOND
     1     1     2 1   
     2     1     9 1   
     3     1    10 1   
     4     2     3 ar  
     5     2     4 ar  
     6     3     7 ar  
     7     4     5 ar  
     8     5     6 ar  
     9     5    11 1   
    10     6     7 ar  
    11     7     8 1   
    12     8    12 1   
    13     8    13 1   
@<TRIPOS>SUBSTRUCTURE
     1 ZZS         1 TEMP              0 ****  ****    0 ROOT
