@<TRIPOS>MOLECULE
ZZT
   21    21     1     0     0
SMALL
bcc


@<TRIPOS>ATOM
      1 N1           0.0000     0.0000     0.0000 nv         1 ZZT      -0.544200
      2 C2           1.4000     0.0000     0.0000 ca         1 ZZT      -0.003400
      3 C3           2.0960     0.0000     1.2000 ca         1 ZZT      -0.079000
      4 C4           3.4780    -0.0000     1.1970 ca         1 ZZT      -0.128300
      5 C5           4.2310     0.0000     2.5020 c3         1 ZZT       0.070200
      6 C6           4.1700     0.0010     0.0010 ca         1 ZZT      -0.061000
      7 C7           3.4840     0.0020    -1.2000 ca         1 ZZT      -0.205000
      8 C8           2.0990    -0.0050    -1.2060 ca         1 ZZT       0.133100
      9 O9           1.4220    -0.0100    -2.3860 os         1 ZZT      -0.299900
     10 C10          2.2040    -0.0150    -3.5820 c3         1 ZZT       0.240700
     11 H11N        -0.5000     0.8670     0.0150 hn         1 ZZT       0.270300
     12 H12N        -0.5000    -0.8670     0.0170 hn         1 ZZT       0.270300
     13 H3           1.5560    -0.0130     2.1390 ha         1 ZZT       0.110000
     14 H51C         5.2810     0.1930     2.3130 hc         1 ZZT       0.005033
     15 H52C         3.8330     0.7730     3.1490 hc         1 ZZT       0.005033
     16 H53C         4.1220    -0.9650     2.9820 hc         1 ZZT       0.005033
     17 H6           5.2530     0.0040     0.0030 ha         1 ZZT       0.103000
     18 H7           4.0290     0.0000    -2.1360 ha         1 ZZT       0.119000
     19 H101         2.8320    -0.8970    -3.5990 h1         1 ZZT      -0.003633
     20 H102         1.5470    -0.0230    -4.4430 h1         1 ZZT      -0.003633
     21 H103         2.8260     0.8720    -3.6100 h1         1 ZZT      -0.003633
@<TRIPOS>BOND
     1     1     2 1   
     2     1    11 1   
     3     1    12 1   
     4     2     3 ar  
     5     2     8 ar  
     6     3     4 ar  
     7     3    13 1   
     8     4     5 1   
     9     4     6 ar  
    10     5    14 1   
    11     5    15 1   
    12     5    16 1   
    13     6     7 ar  
    14     6    17 1   
    15     7     8 ar  
    16     7    18 1   
    17     8     9 1   
    18     9    10 1   
    19    10    19 1   
    20    10    20 1   
    21    10    21 1   
@<TRIPOS>SUBSTRUCTURE
     1 ZZT         1 TEMP              0 ****  ****    0 ROOT
