@<TRIPOS>MOLECULE
molecule
   47    50     1     0     0
SMALL
bcc


@<TRIPOS>ATOM
      1 CAA          0.0000     0.0000     0.0000 c3         1 ZZV       0.229100
      2 CAB          2.5180    -1.7570     1.8270 c3         1 ZZV      -0.251300
      3 OAD          1.3970     0.6060     2.3560 o          1 ZZV      -0.616300
      4 OAE          3.5410     0.6040     1.1190 o          1 ZZV      -0.616300
      5 CAH          2.5500    -3.6030    -1.8760 ca         1 ZZV      -0.234300
      6 CAI          3.2450    -3.5290    -3.0800 ca         1 ZZV       0.426200
      7 CAJ          6.4570     6.0450    -1.9040 ca         1 ZZV      -0.169500
      8 CAK          5.2590     6.1290     0.1710 ca         1 ZZV      -0.169500
      9 CAL          5.3200     5.5840    -2.5400 ca         1 ZZV      -0.082000
     10 CAM          4.1230     5.6670    -0.4670 ca         1 ZZV      -0.082000
     11 CAN          2.1780    -2.4560    -1.2330 ca         1 ZZV      -0.103000
     12 CAP          2.2800     2.6180    -1.4120 c3         1 ZZV       0.143300
     13 NAQ          3.5590    -2.3790    -3.6250 nb         1 ZZV      -0.652000
     14 CAR          3.4240     2.6100    -3.3940 c          1 ZZV       0.724100
     15 CAS          6.4270     6.3180    -0.5480 ca         1 ZZV       0.140900
     16 CAT          4.1540     5.3950    -1.8210 ca         1 ZZV      -0.139300
     17 CAU          3.5690     0.0090    -3.6420 ca         1 ZZV       0.163800
     18 CAV          2.5040     1.1760    -1.7990 ca         1 ZZV      -0.043300
     19 CAW          3.2080     1.2010    -3.0190 ca         1 ZZV      -0.183600
     20 CAX          2.1630    -0.0020    -1.2090 ca         1 ZZV       0.139600
     21 CAY          2.5170    -1.2250    -1.8210 ca         1 ZZV      -0.127300
     22 CAZ          3.2250    -1.2210    -3.0470 ca         1 ZZV       0.380600
     23 NBA          1.4650     0.0000     0.0000 nh         1 ZZV      -0.694900
     24 NBB          2.8900     3.4270    -2.4710 n          1 ZZV      -0.489800
     25 SBC          2.2930     0.0000     1.4340 s6         1 ZZV       1.320900
     26 HAA         -0.3610     0.9360     0.4090 h1         1 ZZV       0.046700
     27 HAAA        -0.3610    -0.1140    -1.0150 h1         1 ZZV       0.046700
     28 HAAB        -0.3610    -0.8220     0.6060 h1         1 ZZV       0.046700
     29 HAB          1.6150    -2.3010     1.5800 h1         1 ZZV       0.099700
     30 HABA         3.3470    -2.1530     1.2520 h1         1 ZZV       0.099700
     31 HABB         2.7280    -1.8670     2.8850 h1         1 ZZV       0.099700
     32 HOAF         3.6400    -0.0670    -5.5330 ho         1 ZZV       0.437000
     33 HAH          2.3040    -4.5680    -1.4490 ha         1 ZZV       0.142000
     34 HAI          3.5340    -4.4460    -3.5790 h4         1 ZZV       0.031100
     35 HAJ          7.3710     6.1930    -2.4670 ha         1 ZZV       0.147000
     36 HAK          5.2350     6.3430     1.2330 ha         1 ZZV       0.147000
     37 HAL          5.3430     5.3700    -3.6020 ha         1 ZZV       0.143500
     38 HAM          3.2080     5.5190     0.0950 ha         1 ZZV       0.143500
     39 HAN          1.6370    -2.4940    -0.2950 ha         1 ZZV       0.140000
     40 HAO          2.9200     5.2210    -3.5480 h1         1 ZZV       0.065200
     41 HAOA         2.0370     5.2820    -2.0170 h1         1 ZZV       0.065200
     42 HAP          1.2180     2.8250    -1.3530 h1         1 ZZV       0.070200
     43 H18          2.7590     2.8260    -0.4630 h1         1 ZZV       0.070200
     44 OAC          4.0040     2.9800    -4.3960 o          1 ZZV      -0.616500
     45 OAF          4.2470     0.0330    -4.8180 oh         1 ZZV      -0.485100
     46 CAO          2.9150     4.8910    -2.5160 c3         1 ZZV       0.185300
     47 FAG          7.5380     6.7700     0.0750 f          1 ZZV      -0.141900
@<TRIPOS>BOND
     1     1    23 1
     2     1    26 1
     3     1    27 1
     4     1    28 1
     5     2    25 1
     6     2    29 1
     7     2    30 1
     8     2    31 1
     9    44    14 2
    10     3    25 2
    11     4    25 2
    12    45    17 1
    13    45    32 1
    14    47    15 1
    15     5     6 ar
    16     5    11 ar
    17     5    33 1
    18     6    13 ar
    19     6    34 1
    20     7     9 ar
    21     7    15 ar
    22     7    35 1
    23     8    10 ar
    24     8    15 ar
    25     8    36 1
    26     9    16 ar
    27     9    37 1
    28    10    16 ar
    29    10    38 1
    30    11    21 ar
    31    11    39 1
    32    46    16 1
    33    46    24 1
    34    46    40 1
    35    46    41 1
    36    12    18 1
    37    12    24 1
    38    12    42 1
    39    13    22 ar
    40    14    19 1
    41    14    24 1
    42    17    19 ar
    43    17    22 ar
    44    18    19 ar
    45    18    20 ar
    46    20    21 ar
    47    20    23 1
    48    21    22 ar
    49    23    25 1
    50    12    43 1
@<TRIPOS>SUBSTRUCTURE
     1 ZZV         1 TEMP              0 ****  ****    0 ROOT
