@<TRIPOS>MOLECULE
molecule
   39    42     1     0     0
SMALL
bcc


@<TRIPOS>ATOM
      1 OAA          0.0000     0.0000     0.0000 o          1 ZZW      -0.583100
      2 OAB          1.1820    -0.0010    -2.3940 oh         1 ZZW      -0.366100
      3 CAD          0.3730     0.0000     7.1580 ca         1 ZZW      -0.158000
      4 CAE          1.5630     0.0010     7.8680 ca         1 ZZW      -0.089000
      5 CAF          6.7260    -3.3750     4.4100 ca         1 ZZW      -0.166000
      6 CAG          6.1310    -3.3760     6.7330 ca         1 ZZW      -0.166000
      7 CAH          6.2810    -2.0720     4.2980 ca         1 ZZW      -0.082500
      8 CAI          5.6860    -2.0730     6.6180 ca         1 ZZW      -0.082500
      9 CAJ          0.3860     0.0010     5.7800 ca         1 ZZW      -0.062000
     10 CAK          2.7740     0.0000     7.2080 ca         1 ZZW      -0.158000
     11 CAL          3.9970    -0.0010     2.3740 ca         1 ZZW       0.392200
     12 CAM          1.2520     0.0000     2.4800 ca         1 ZZW      -0.117300
     13 CAN          5.2740    -0.0000     5.2780 c3         1 ZZW       0.103600
     14 NAO          3.2870    -0.0000     1.2710 nb         1 ZZW      -0.667000
     15 NAP          1.8890    -0.0000    -1.1680 ns         1 ZZW      -0.456400
     16 CAQ          1.2160     0.0000     0.0000 c          1 ZZW       0.597600
     17 CAR          6.6520    -4.0290     5.6280 ca         1 ZZW       0.146900
     18 CAS          5.7600    -1.4210     5.4010 ca         1 ZZW      -0.141300
     19 CAT          1.9560    -0.0000     1.2790 ca         1 ZZW       0.327800
     20 CAU          1.6010     0.0010     5.0990 cp         1 ZZW      -0.089000
     21 CAV          1.9680     0.0010     3.6740 cp         1 ZZW      -0.074000
     22 CAW          2.8080     0.0000     5.8180 ca         1 ZZW       0.010800
     23 CAX          3.3740     0.0010     3.6220 ca         1 ZZW      -0.098500
     24 NAY          3.8540     0.0000     4.9130 na         1 ZZW      -0.064300
     25 HOAB         1.7940    -0.0010    -3.1110 ho         1 ZZW       0.399000
     26 HAD         -0.5710     0.0000     7.6880 ha         1 ZZW       0.137000
     27 HAE          1.5420     0.0000     8.9520 ha         1 ZZW       0.135000
     28 HAF          7.1340    -3.8840     3.5450 ha         1 ZZW       0.150000
     29 HAG          6.0730    -3.8860     7.6870 ha         1 ZZW       0.150000
     30 HAH          6.3380    -1.5600     3.3450 ha         1 ZZW       0.137000
     31 HAI          5.2780    -1.5620     7.4820 ha         1 ZZW       0.137000
     32 HAJ         -0.5460     0.0000     5.2280 ha         1 ZZW       0.140000
     33 HAK          3.6980     0.0010     7.7730 ha         1 ZZW       0.127000
     34 HAL          5.0780    -0.0010     2.3150 h4         1 ZZW       0.019100
     35 HAM          0.1680     0.0000     2.4860 ha         1 ZZW       0.170000
     36 HAN          5.8440     0.5110     4.5110 h1         1 ZZW       0.068200
     37 HANA         5.4030     0.5100     6.2250 h1         1 ZZW       0.068200
     38 HNAP         2.8900     0.0000    -1.1690 hn         1 ZZW       0.339500
     39 FAC          7.0870    -5.3030     5.7390 f          1 ZZW      -0.135900
@<TRIPOS>BOND
     1     1    16 2
     2     2    15 1
     3     2    25 1
     4    39    17 1
     5     3     4 ar
     6     3     9 ar
     7     3    26 1
     8     4    10 ar
     9     4    27 1
    10     5     7 ar
    11     5    17 ar
    12     5    28 1
    13     6     8 ar
    14     6    17 ar
    15     6    29 1
    16     7    18 ar
    17     7    30 1
    18     8    18 ar
    19     8    31 1
    20     9    20 ar
    21     9    32 1
    22    10    22 ar
    23    10    33 1
    24    11    14 ar
    25    11    23 ar
    26    11    34 1
    27    12    19 ar
    28    12    21 ar
    29    12    35 1
    30    13    18 1
    31    13    24 1
    32    13    36 1
    33    13    37 1
    34    14    19 ar
    35    15    16 1
    36    15    38 1
    37    16    19 1
    38    20    21 1
    39    20    22 ar
    40    21    23 ar
    41    22    24 1
    42    23    24 1
@<TRIPOS>SUBSTRUCTURE
     1 ZZW         1 TEMP              0 ****  ****    0 ROOT
