@<TRIPOS>MOLECULE
molecule
   53    56     1     0     0
SMALL
bcc


@<TRIPOS>ATOM
      1 CAA          0.0000     0.0000     0.0000 c3         1 ZZX      -0.114100
      2 CAB          4.6150    -0.7220     7.2990 c3         1 ZZX       0.089300
      3 CAC          3.5530    -0.1230     4.5430 c3         1 ZZX      -0.160100
      4 OAD          6.0740     0.5380     5.4140 o          1 ZZX      -0.591100
      5 OAF          4.2170     6.3400     4.1800 o          1 ZZX      -0.607500
      6 OAG          2.7300     5.0780     1.7280 oh         1 ZZX      -0.466100
      7 CAJ          3.5630     5.9800     9.6500 ca         1 ZZX      -0.169000
      8 CAK          4.5110     5.6260     8.7090 ca         1 ZZX      -0.083000
      9 CAL          3.6320     7.2640     7.1990 ca         1 ZZX      -0.071000
     10 CAM          1.5300     0.0000     0.0000 c3         1 ZZX       0.108000
     11 CAN          5.5800     5.8790     6.4600 c3         1 ZZX       0.163300
     12 CAO          2.2540     0.0000     2.4130 c3         1 ZZX       0.103000
     13 NAP          5.2500     3.6040     5.9790 nc         1 ZZX      -0.413300
     14 CAR          5.1270     1.1660     5.8460 c          1 ZZX       0.631800
     15 CAS          2.2380     2.0610     1.0740 c          1 ZZX       0.751100
     16 CAT          2.6460     6.9780     9.3660 ca         1 ZZX       0.150900
     17 CAU          4.5450     6.2670     7.4840 ca         1 ZZX      -0.134300
     18 CAV          2.6810     7.6210     8.1380 ca         1 ZZX      -0.021600
     19 CAW          3.1450     4.0210     2.4710 cc         1 ZZX       0.200100
     20 CAX          4.8440     2.5230     5.3360 cd         1 ZZX       0.314900
     21 CAY          2.9380     2.6940     2.1940 cd         1 ZZX      -0.220900
     22 CAZ          4.3810     5.1720     4.4870 c          1 ZZX       0.710100
     23 CBA          3.8670     4.0740     3.6680 cc         1 ZZX      -0.275600
     24 CBB          4.0990     2.7380     4.0900 cd         1 ZZX      -0.093200
     25 CBC          3.5290     0.4520     3.1260 c3         1 ZZX       0.035000
     26 NBD          2.0180     0.7290     1.1730 n          1 ZZX      -0.503800
     27 NBE          5.0490     4.8100     5.6090 n          1 ZZX      -0.151800
     28 NBF          3.5510     1.9180     3.1910 na         1 ZZX      -0.004100
     29 HAA         -0.3610     1.0020     0.2000 hc         1 ZZX       0.043367
     30 HAAA        -0.3610    -0.6740     0.7670 hc         1 ZZX       0.043367
     31 HAAB        -0.3610    -0.3280    -0.9670 hc         1 ZZX       0.043367
     32 HAB          5.3040    -1.2230     6.6300 h1         1 ZZX       0.049700
     33 HABA         5.0570    -0.6500     8.2850 h1         1 ZZX       0.049700
     34 HABB         3.6920    -1.2880     7.3570 h1         1 ZZX       0.049700
     35 HAC          2.9660    -1.0330     4.5740 hc         1 ZZX       0.071367
     36 HACA         4.5760    -0.3430     4.8250 hc         1 ZZX       0.071367
     37 HACB         3.1360     0.6000     5.2330 hc         1 ZZX       0.071367
     38 HOAG         1.8900     5.3720     2.0400 ho         1 ZZX       0.430000
     39 HAJ          3.5370     5.4770    10.6090 ha         1 ZZX       0.152000
     40 HAK          5.2290     4.8450     8.9310 ha         1 ZZX       0.146000
     41 HAL          3.6600     7.7650     6.2400 ha         1 ZZX       0.173000
     42 HAM          1.8910     0.4820    -0.9010 h1         1 ZZX       0.058200
     43 HAMA         1.8910    -1.0210     0.0330 h1         1 ZZX       0.058200
     44 HAN          5.8240     6.7390     5.8490 h1         1 ZZX       0.087700
     45 HANA         6.4730     5.5290     6.9640 h1         1 ZZX       0.087700
     46 HAO          2.3370    -1.0560     2.1860 h1         1 ZZX       0.058200
     47 HAOA         1.4110     0.1560     3.0750 h1         1 ZZX       0.058200
     48 HNAQ         3.5930     1.1640     7.1930 hn         1 ZZX       0.325500
     49 HBC          4.3930     0.1030     2.5730 h1         1 ZZX       0.088700
     50 OAE          1.8720     2.7000     0.1050 o          1 ZZX      -0.603500
     51 FAH          1.7180     7.3250    10.2840 f          1 ZZX      -0.125900
     52 ClAI         1.5340     8.8730     7.7810 cl         1 ZZX      -0.077400
     53 NAQ          4.3340     0.6230     6.7920 ns         1 ZZX      -0.587900
@<TRIPOS>BOND
     1     1    10 1
     2     2    53 1
     3     3    25 1
     4     4    14 2
     5    50    15 2
     6     5    22 2
     7     6    19 1
     8    51    16 1
     9    52    18 1
    10     7     8 ar
    11     7    16 ar
    12     8    17 ar
    13     9    17 ar
    14     9    18 ar
    15    10    26 1
    16    11    17 1
    17    11    27 1
    18    12    25 1
    19    12    26 1
    20    13    20 2
    21    13    27 1
    22    53    14 1
    23    14    20 1
    24    15    21 1
    25    15    26 1
    26    16    18 ar
    27    19    21 2
    28    19    23 1
    29    20    24 1
    30    21    28 1
    31    22    23 1
    32    22    27 1
    33    23    24 2
    34    24    28 1
    35    25    28 1
    36     1    29 1
    37     1    30 1
    38     1    31 1
    39     2    32 1
    40     2    33 1
    41     2    34 1
    42     3    35 1
    43     3    36 1
    44     3    37 1
    45     6    38 1
    46     7    39 1
    47     8    40 1
    48     9    41 1
    49    10    42 1
    50    10    43 1
    51    11    44 1
    52    11    45 1
    53    12    46 1
    54    12    47 1
    55    53    48 1
    56    25    49 1
@<TRIPOS>SUBSTRUCTURE
     1 ZZX         1 TEMP              0 ****  ****    0 ROOT
