@<TRIPOS>MOLECULE
ZZX
   53    56     1     0     0
SMALL
bcc


@<TRIPOS>ATOM
      1 CAA          0.0000     0.0000     0.0000 c3         1 ZZX      -0.018100
      2 CAB          4.6150    -0.7220     7.2990 c3         1 ZZX       0.063300
      3 CAC          3.5530    -0.1230     4.5430 c3         1 ZZX      -0.137100
      4 OAD          6.0740     0.5380     5.4140 o          1 ZZX      -0.638100
      5 OAF          4.2170     6.3400     4.1800 o          1 ZZX      -0.651500
      6 OAG          2.7300     5.0780     1.7280 oh         1 ZZX      -0.444100
      7 CAJ          3.5630     5.9800     9.6500 ca         1 ZZX      -0.132000
      8 CAK          4.5110     5.6260     8.7090 ca         1 ZZX      -0.059000
      9 CAL          3.6320     7.2640     7.1990 ca         1 ZZX      -0.051000
     10 CAM          1.5300     0.0000     0.0000 c3         1 ZZX       0.059000
     11 CAN          5.5800     5.8790     6.4600 c3         1 ZZX       0.089300
     12 CAO          2.2540     0.0000     2.4130 c3         1 ZZX       0.054000
     13 NAP          5.2500     3.6040     5.9790 nc         1 ZZX      -0.456300
     14 CAR          5.1270     1.1660     5.8460 c          1 ZZX       0.555800
     15 CAS          2.2380     2.0610     1.0740 c          1 ZZX       0.700100
     16 CAT          2.6460     6.9780     9.3660 ca         1 ZZX       0.119900
     17 CAU          4.5450     6.2670     7.4840 ca         1 ZZX      -0.137300
     18 CAV          2.6810     7.6210     8.1380 ca         1 ZZX      -0.082600
     19 CAW          3.1450     4.0210     2.4710 cc         1 ZZX       0.257100
     20 CAX          4.8440     2.5230     5.3360 cd         1 ZZX       0.278900
     21 CAY          2.9380     2.6940     2.1940 cd         1 ZZX      -0.446900
     22 CAZ          4.3810     5.1720     4.4870 c          1 ZZX       0.646100
     23 CBA          3.8670     4.0740     3.6680 cc         1 ZZX      -0.314600
     24 CBB          4.0990     2.7380     4.0900 cd         1 ZZX      -0.278200
     25 CBC          3.5290     0.4520     3.1260 c3         1 ZZX      -0.086000
     26 NBD          2.0180     0.7290     1.1730 n          1 ZZX      -0.181800
     27 NBE          5.0490     4.8100     5.6090 n          1 ZZX       0.210200
     28 NBF          3.5510     1.9180     3.1910 na         1 ZZX       0.518900
     29 HAA         -0.3610     1.0020     0.2000 hc         1 ZZX       0.010700
     30 HAAA        -0.3610    -0.6740     0.7670 hc         1 ZZX       0.010700
     31 HAAB        -0.3610    -0.3280    -0.9670 hc         1 ZZX       0.010700
     32 HAB          5.3040    -1.2230     6.6300 h1         1 ZZX       0.019033
     33 HABA         5.0570    -0.6500     8.2850 h1         1 ZZX       0.019033
     34 HABB         3.6920    -1.2880     7.3570 h1         1 ZZX       0.019033
     35 HAC          2.9660    -1.0330     4.5740 hc         1 ZZX       0.053700
     36 HACA         4.5760    -0.3430     4.8250 hc         1 ZZX       0.053700
     37 HACB         3.1360     0.6000     5.2330 hc         1 ZZX       0.053700
     38 HOAG         1.8900     5.3720     2.0400 ho         1 ZZX       0.410000
     39 HAJ          3.5370     5.4770    10.6090 ha         1 ZZX       0.123000
     40 HAK          5.2290     4.8450     8.9310 ha         1 ZZX       0.115000
     41 HAL          3.6600     7.7650     6.2400 ha         1 ZZX       0.144000
     42 HAM          1.8910     0.4820    -0.9010 h1         1 ZZX       0.028700
     43 HAMA         1.8910    -1.0210     0.0330 h1         1 ZZX       0.028700
     44 HAN          5.8240     6.7390     5.8490 h1         1 ZZX       0.053200
     45 HANA         6.4730     5.5290     6.9640 h1         1 ZZX       0.053200
     46 HAO          2.3370    -1.0560     2.1860 h1         1 ZZX       0.029200
     47 HAOA         1.4110     0.1560     3.0750 h1         1 ZZX       0.029200
     48 HNAQ         3.5930     1.1640     7.1930 hn         1 ZZX       0.183500
     49 HBC          4.3930     0.1030     2.5730 h1         1 ZZX       0.061700
     50 OAE          1.8720     2.7000     0.1050 o          1 ZZX      -0.644500
     51 FAH          1.7180     7.3250    10.2840 f          1 ZZX      -0.119900
     52 ClAI         1.5340     8.8730     7.7810 cl         1 ZZX       0.015600
     53 NAQ          4.3340     0.6230     6.7920 ns         1 ZZX      -0.200900
@<TRIPOS>BOND
     1     1    10 1   
     2     1    29 1   
     3     1    30 1   
     4     1    31 1   
     5     2    32 1   
     6     2    33 1   
     7     2    34 1   
     8     2    53 1   
     9     3    25 1   
    10     3    35 1   
    11     3    36 1   
    12     3    37 1   
    13     4    14 2   
    14     5    22 2   
    15     6    19 1   
    16     6    38 1   
    17     7     8 ar  
    18     7    16 ar  
    19     7    39 1   
    20     8    17 ar  
    21     8    40 1   
    22     9    17 ar  
    23     9    18 ar  
    24     9    41 1   
    25    10    26 1   
    26    10    42 1   
    27    10    43 1   
    28    11    17 1   
    29    11    27 1   
    30    11    44 1   
    31    11    45 1   
    32    12    25 1   
    33    12    26 1   
    34    12    46 1   
    35    12    47 1   
    36    13    20 2   
    37    13    27 1   
    38    14    20 1   
    39    14    53 1   
    40    15    21 1   
    41    15    26 1   
    42    15    50 2   
    43    16    18 ar  
    44    16    51 1   
    45    18    52 1   
    46    19    21 2   
    47    19    23 1   
    48    20    24 1   
    49    21    28 1   
    50    22    23 1   
    51    22    27 1   
    52    23    24 2   
    53    24    28 1   
    54    25    28 1   
    55    25    49 1   
    56    48    53 1   
@<TRIPOS>SUBSTRUCTURE
     1 ZZX         1 TEMP              0 ****  ****    0 ROOT
