@<TRIPOS>MOLECULE
molecule
   35    37     1     0     0
SMALL
bcc


@<TRIPOS>ATOM
      1 O11          0.0000     0.0000     0.0000 o          1 ZZY      -0.433100
      2 C10          1.2150     0.0000     0.0000 c          1 ZZY       0.516700
      3 N12          1.8900     0.0000     1.1670 nz         1 ZZY      -0.677400
      4 C5           1.9530    -0.0060    -1.2790 ca         1 ZZY      -0.356900
      5 C3           1.2600    -0.0110    -2.4940 ca         1 ZZY       0.013000
      6 C1           1.9990    -0.0150    -3.6680 ca         1 ZZY      -0.184500
      7 C6           3.3530     0.0010    -1.2880 ca         1 ZZY       0.439200
      8 N4           4.0240    -0.0030    -2.4160 nb         1 ZZY      -0.628000
      9 C2           3.4060    -0.0140    -3.5970 ca         1 ZZY       0.518100
     10 C8           3.8740    -0.0200    -4.9360 cc         1 ZZY      -0.310800
     11 C7           2.8030    -0.0230    -5.7490 cd         1 ZZY       0.038900
     12 N9           1.6590    -0.0220    -5.0040 na         1 ZZY      -0.190900
     13 S13          0.1170    -0.0240    -5.6070 sy         1 ZZY       1.404300
     14 O16         -0.5860     1.0000    -4.9160 o          1 ZZY      -0.575300
     15 O15          0.2380    -0.0650    -7.0220 o          1 ZZY      -0.575300
     16 C14         -0.6270    -1.5480    -5.1280 ca         1 ZZY      -0.281500
     17 C21         -0.1480    -2.7410    -5.6360 ca         1 ZZY      -0.055200
     18 N22          0.9890    -2.7380    -6.5830 no         1 ZZY       0.281200
     19 O23          1.3350    -3.7740    -7.1240 o          1 ZZY      -0.186500
     20 O24          1.5810    -1.7000    -6.8230 o          1 ZZY      -0.186500
     21 C20         -1.6860    -1.5510    -4.2390 ca         1 ZZY      -0.034000
     22 C18         -2.2690    -2.7460    -3.8630 ca         1 ZZY      -0.108000
     23 C17         -1.7950    -3.9390    -4.3760 ca         1 ZZY      -0.079000
     24 C19         -0.7320    -3.9370    -5.2600 ca         1 ZZY      -0.078000
     25 H121         2.4640     0.8180     1.2200 hn         1 ZZY       0.478133
     26 H122         1.2400    -0.0020     1.9280 hn         1 ZZY       0.478133
     27 H3           0.2070     0.2390    -2.5180 ha         1 ZZY       0.180000
     28 H6           3.8920     0.0090    -0.3480 h4         1 ZZY       0.000100
     29 H8           4.9120    -0.0200    -5.2490 ha         1 ZZY       0.195000
     30 H7           2.8420    -0.0240    -6.8320 h4         1 ZZY       0.238000
     31 H20         -2.0930    -0.6130    -3.8780 ha         1 ZZY       0.174000
     32 H19         -0.4620    -4.9450    -5.5490 ha         1 ZZY       0.182000
     33 H18         -3.0990    -2.7480    -3.1670 ha         1 ZZY       0.159000
     34 H17         -2.2720    -4.8730    -4.1050 ha         1 ZZY       0.165000
     35 H123         2.4600    -0.8210     1.2230 hn         1 ZZY       0.478133
@<TRIPOS>BOND
     1     1     2 2
     2     2     3 1
     3     2     4 1
     4     4     5 ar
     5     4     7 ar
     6     5     6 ar
     7     6     9 ar
     8     6    12 1
     9     7     8 ar
    10     8     9 ar
    11     9    10 1
    12    10    11 2
    13    11    12 1
    14    12    13 1
    15    13    14 2
    16    13    15 2
    17    13    16 1
    18    16    17 ar
    19    16    21 ar
    20    17    18 1
    21    17    24 ar
    22    18    19 1
    23    18    20 1
    24    21    22 ar
    25    22    23 ar
    26    23    24 ar
    27     3    25 1
    28     3    26 1
    29     5    27 1
    30     7    28 1
    31    10    29 1
    32    11    30 1
    33    21    31 1
    34    24    32 1
    35    22    33 1
    36    23    34 1
    37    35     3 1
@<TRIPOS>SUBSTRUCTURE
     1 ZZY         1 TEMP              0 ****  ****    0 ROOT
