@<TRIPOS>MOLECULE
ZZY
   35    37     1     0     0
SMALL
bcc


@<TRIPOS>ATOM
      1 O11          0.0000     0.0000     0.0000 o          1 ZZY      -0.453100
      2 C10          1.2150     0.0000     0.0000 c          1 ZZY       0.370700
      3 N12          1.8900     0.0000     1.1670 nz         1 ZZY       0.202600
      4 C5           1.9530    -0.0060    -1.2790 ca         1 ZZY      -0.381900
      5 C3           1.2600    -0.0110    -2.4940 ca         1 ZZY       0.063000
      6 C1           1.9990    -0.0150    -3.6680 ca         1 ZZY      -0.294500
      7 C6           3.3530     0.0010    -1.2880 ca         1 ZZY       0.400200
      8 N4           4.0240    -0.0030    -2.4160 nb         1 ZZY      -0.489000
      9 C2           3.4060    -0.0140    -3.5970 ca         1 ZZY       0.453100
     10 C8           3.8740    -0.0200    -4.9360 cc         1 ZZY      -0.298800
     11 C7           2.8030    -0.0230    -5.7490 cd         1 ZZY      -0.031100
     12 N9           1.6590    -0.0220    -5.0040 na         1 ZZY       0.206100
     13 S13          0.1170    -0.0240    -5.6070 sy         1 ZZY       1.040300
     14 O16         -0.5860     1.0000    -4.9160 o          1 ZZY      -0.538800
     15 O15          0.2380    -0.0650    -7.0220 o          1 ZZY      -0.538800
     16 C14         -0.6270    -1.5480    -5.1280 ca         1 ZZY      -0.112500
     17 C21         -0.1480    -2.7410    -5.6360 ca         1 ZZY      -0.340200
     18 N22          0.9890    -2.7380    -6.5830 no         1 ZZY       1.025200
     19 O23          1.3350    -3.7740    -7.1240 o          1 ZZY      -0.428500
     20 O24          1.5810    -1.7000    -6.8230 o          1 ZZY      -0.428500
     21 C20         -1.6860    -1.5510    -4.2390 ca         1 ZZY      -0.008000
     22 C18         -2.2690    -2.7460    -3.8630 ca         1 ZZY      -0.066000
     23 C17         -1.7950    -3.9390    -4.3760 ca         1 ZZY      -0.063000
     24 C19         -0.7320    -3.9370    -5.2600 ca         1 ZZY      -0.022000
     25 H121         2.4640     0.8180     1.2200 hn         1 ZZY       0.246467
     26 H122         1.2400    -0.0020     1.9280 hn         1 ZZY       0.246467
     27 H3           0.2070     0.2390    -2.5180 ha         1 ZZY       0.147000
     28 H6           3.8920     0.0090    -0.3480 h4         1 ZZY      -0.047900
     29 H8           4.9120    -0.0200    -5.2490 ha         1 ZZY       0.159000
     30 H7           2.8420    -0.0240    -6.8320 h4         1 ZZY       0.199000
     31 H20         -2.0930    -0.6130    -3.8780 ha         1 ZZY       0.142000
     32 H19         -0.4620    -4.9450    -5.5490 ha         1 ZZY       0.146000
     33 H18         -3.0990    -2.7480    -3.1670 ha         1 ZZY       0.122000
     34 H17         -2.2720    -4.8730    -4.1050 ha         1 ZZY       0.126000
     35 H123         2.4600    -0.8210     1.2230 hn         1 ZZY       0.246467
@<TRIPOS>BOND
     1     1     2 2   
     2     2     3 1   
     3     2     4 1   
     4     3    25 1   
     5     3    26 1   
     6     3    35 1   
     7     4     5 ar  
     8     4     7 ar  
     9     5     6 ar  
    10     5    27 1   
    11     6     9 ar  
    12     6    12 1   
    13     7     8 ar  
    14     7    28 1   
    15     8     9 ar  
    16     9    10 1   
    17    10    11 2   
    18    10    29 1   
    19    11    12 1   
    20    11    30 1   
    21    12    13 1   
    22    13    14 2   
    23    13    15 2   
    24    13    16 1   
    25    16    17 ar  
    26    16    21 ar  
    27    17    18 1   
    28    17    24 ar  
    29    18    19 1   
    30    18    20 1   
    31    21    22 ar  
    32    21    31 1   
    33    22    23 ar  
    34    22    33 1   
    35    23    24 ar  
    36    23    34 1   
    37    24    32 1   
@<TRIPOS>SUBSTRUCTURE
     1 ZZY         1 TEMP              0 ****  ****    0 ROOT
