@<TRIPOS>MOLECULE
ZZZ
   24    25     1     0     0
SMALL
bcc


@<TRIPOS>ATOM
      1 C7          0.1300    0.0640   -0.0920 c3        1 ZZZ      0.174800
      2 N8          1.5770    0.1180   -0.1010 nh        1 ZZZ     -0.689000
      3 C9          2.1830   -0.0340    1.1700 cc        1 ZZZ      0.232600
      4 N1          3.5020   -0.4740    1.2360 nc        1 ZZZ     -0.541300
      5 C2          4.1030   -0.4510    2.4210 cd        1 ZZZ      0.443800
      6 N2          5.5270   -0.9040    2.4440 n4        1 ZZZ     -0.783600
      7 C10         1.4780    0.3570    2.3340 cd        1 ZZZ      0.052800
      8 C4          2.1830    0.3770    3.6390 c         1 ZZZ      0.697700
      9 N3          3.5290   -0.0530    3.6320 n         1 ZZZ     -0.474400
     10 O4          1.6970    0.7400    4.7180 o         1 ZZZ     -0.553500
     11 N5          0.1290    0.6460    2.3210 nh        1 ZZZ     -0.668000
     12 C6         -0.4850    0.9310    1.0370 c3        1 ZZZ      0.066500
     13 C6A        -0.4580    2.4000    0.6150 c         1 ZZZ      0.546900
     14 O6A        -0.0230    3.2940    1.3340 o         1 ZZZ     -0.489100
     15 H7C1       -0.2230    0.4570   -1.0880 h1        1 ZZZ      0.075200
     16 H7C2       -0.2550   -0.9910    0.0260 h1        1 ZZZ      0.075200
     17 H8          1.9890   -0.4290   -0.8330 hn        1 ZZZ      0.428800
     18 H2N1        6.1250   -0.1370    2.7720 hn        1 ZZZ      0.478800
     19 H2N2        5.6220   -1.7140    3.0670 hn        1 ZZZ      0.478800
     20 H3          4.0390   -0.0250    4.4890 hn        1 ZZZ      0.354500
     21 H5         -0.2110    1.1900    3.0930 hn        1 ZZZ      0.465800
     22 H6         -1.5780    0.6420    1.1360 h1        1 ZZZ      0.115700
     23 H6A        -0.8860    2.5850   -0.3940 h4        1 ZZZ      0.031200
     24 H23         5.8170   -1.1740    1.4910 hn        1 ZZZ      0.478800
@<TRIPOS>BOND
     1    1    2 1
     2    1   12 1
     3    1   15 1
     4    1   16 1
     5    2    3 1
     6    2   17 1
     7    3    4 1
     8    3    7 2
     9    4    5 2
    10    5    6 1
    11    5    9 1
    12    6   18 1
    13    6   19 1
    14    6   24 1
    15    7    8 1
    16    7   11 1
    17    8    9 1
    18    8   10 2
    19    9   20 1
    20   11   12 1
    21   11   21 1
    22   12   13 1
    23   12   22 1
    24   13   14 2
    25   13   23 1
@<TRIPOS>SUBSTRUCTURE
     1 ZZZ         1 TEMP              0 ****  ****    0 ROOT
