@<TRIPOS>MOLECULE
molecule
   54    57     1     0     0
SMALL
bcc


@<TRIPOS>ATOM
      1 C1G          0.0000     0.0000     0.0000 ca         1 R02      -0.155600
      2 C1          -0.7410     0.0010    -1.2770 c          1 R02       0.593300
      3 O2          -0.2260     0.4550    -2.2800 o          1 R02      -0.526100
      4 C1A         -2.1080    -0.5510    -1.3370 ca         1 R02      -0.212600
      5 C2A         -2.9560    -0.2120    -2.3970 ca         1 R02      -0.046500
      6 C3A         -4.2310    -0.7290    -2.4480 ca         1 R02      -0.208000
      7 C4A         -4.6750    -1.5870    -1.4490 ca         1 R02       0.151100
      8 O1B         -5.9320    -2.0940    -1.5030 os         1 R02      -0.288900
      9 C2B         -6.0920    -2.9280    -0.3540 c3         1 R02       0.149400
     10 C3B         -7.4960    -3.5350    -0.3550 cx         1 R02      -0.137700
     11 C5B         -7.6150    -5.0410    -0.5960 cx         1 R02      -0.135400
     12 C2F         -9.2210    -7.9120     2.8040 cx         1 R02      -0.153400
     13 C1F         -9.2770    -6.7300     1.8350 cx         1 R02       0.071500
     14 N1D         -9.4650    -5.3900     2.4070 n3         1 R02      -0.628600
     15 C1E        -10.8650    -5.3090     2.8410 c3         1 R02       0.160000
     16 C2E        -11.1120    -3.9740     3.4940 c2         1 R02      -0.168200
     17 C3E        -12.0780    -3.2030     3.0630 c2         1 R02      -0.225000
     18 C5A         -3.8350    -1.9270    -0.3940 ca         1 R02      -0.208000
     19 C6A         -2.5580    -1.4200    -0.3380 ca         1 R02      -0.046500
     20 C6G          1.3970     0.0000     0.0000 ca         1 R02      -0.087000
     21 C5G          2.0830     0.0000     1.1950 ca         1 R02      -0.117000
     22 C4G          1.3920    -0.0010     2.3940 ca         1 R02       0.002100
     23 Br25         2.3400    -0.0020     4.0300 br         1 R02      -0.089100
     24 C3G          0.0060    -0.0070     2.4010 ca         1 R02      -0.117000
     25 C4B         -7.8640    -4.4670     0.8010 cx         1 R02      -0.117700
     26 C3F        -10.4530    -7.7060     1.9200 cx         1 R02      -0.153400
     27 C2G         -0.6920    -0.0010     1.2130 ca         1 R02      -0.087000
     28 H6          -2.6100     0.4570    -3.1750 ha         1 R02       0.150500
     29 H5          -4.8880    -0.4670    -3.2680 ha         1 R02       0.148500
     30 H151        -5.3560    -3.7220    -0.3790 h1         1 R02       0.048200
     31 H152        -5.9550    -2.3370     0.5430 h1         1 R02       0.048200
     32 H16         -8.3200    -2.9480    -0.7430 hc         1 R02       0.097700
     33 H171        -6.6770    -5.5690    -0.7240 hc         1 R02       0.077700
     34 H172        -8.4990    -5.3600    -1.1350 hc         1 R02       0.077700
     35 H192        -9.3510    -7.6650     3.8510 hc         1 R02       0.078700
     36 H20         -8.6610    -6.8400     0.9510 h1         1 R02       0.097700
     37 H251       -11.0690    -6.1020     3.5510 h1         1 R02       0.049200
     38 H252       -11.5160    -5.4170     1.9820 h1         1 R02       0.049200
     39 H26        -10.4900    -3.6530     4.3210 ha         1 R02       0.136000
     40 H291       -12.2550    -2.2430     3.5330 ha         1 R02       0.113000
     41 H292       -12.7000    -3.5240     2.2360 ha         1 R02       0.113000
     42 H3          -4.1860    -2.5980     0.3810 ha         1 R02       0.148500
     43 H2          -1.9050    -1.6860     0.4850 ha         1 R02       0.150500
     44 H13          1.9390     0.0010    -0.9380 ha         1 R02       0.153500
     45 H12          3.1670     0.0000     1.1960 ha         1 R02       0.148000
     46 H10         -0.5290    -0.0080     3.3420 ha         1 R02       0.148000
     47 H4B         -7.0660    -4.6430     1.5120 hc         1 R02       0.094700
     48 H3F1       -10.5510    -8.3930     1.0880 hc         1 R02       0.078700
     49 H3F2       -11.3350    -7.3330     2.4260 hc         1 R02       0.078700
     50 H9          -1.7750    -0.0060     1.2200 ha         1 R02       0.153500
     51 C1C         -9.3080    -4.4340     1.3030 c3         1 R02       0.169800
     52 H191        -8.5670    -8.7250     2.5130 hc         1 R02       0.078700
     53 H271        -9.5460    -3.4370     1.6530 h1         1 R02       0.046700
     54 H272        -9.9770    -4.7030     0.4950 h1         1 R02       0.046700
@<TRIPOS>BOND
     1     1     2 1
     2     1    20 ar
     3     1    27 ar
     4     2     3 2
     5     2     4 1
     6     4     5 ar
     7     4    19 ar
     8     5     6 ar
     9     5    28 1
    10     6     7 ar
    11     6    29 1
    12     7     8 1
    13     7    18 ar
    14     8     9 1
    15     9    10 1
    16     9    30 1
    17     9    31 1
    18    10    11 1
    19    10    25 1
    20    10    32 1
    21    11    25 1
    22    11    33 1
    23    11    34 1
    24    12    13 1
    25    12    26 1
    26    12    52 1
    27    12    35 1
    28    13    14 1
    29    13    26 1
    30    13    36 1
    31    14    51 1
    32    14    15 1
    33    51    25 1
    34    51    53 1
    35    51    54 1
    36    15    16 1
    37    15    37 1
    38    15    38 1
    39    16    17 2
    40    16    39 1
    41    17    40 1
    42    17    41 1
    43    18    19 ar
    44    18    42 1
    45    19    43 1
    46    20    21 ar
    47    20    44 1
    48    21    22 ar
    49    21    45 1
    50    22    23 1
    51    22    24 ar
    52    24    27 ar
    53    24    46 1
    54    25    47 1
    55    26    48 1
    56    26    49 1
    57    27    50 1
@<TRIPOS>SUBSTRUCTURE
     1 R02         1 TEMP              0 ****  ****    0 ROOT
