@<TRIPOS>MOLECULE
molecule
   54    58     1     0     0
SMALL
bcc


@<TRIPOS>ATOM
      1 C01          0.0000     0.0000     0.0000 c          1 R07       0.537500
      2 C02          1.4110     0.0000     0.0000 cc         1 R07      -0.360200
      3 C04          2.0820     0.0000     1.1760 cd         1 R07       0.167000
      4 C07          0.0680     0.0010     2.4320 cc         1 R07      -0.050200
      5 C08         -0.6900     0.0020     1.2990 cd         1 R07       0.044900
      6 C10          1.5520    -0.9030     4.5070 c3         1 R07       0.225200
      7 C14         -0.5690    -0.0020     3.7680 c          1 R07       0.708700
      8 C19          2.2440     1.3800     4.0730 c3         1 R07       0.238100
      9 C20         -0.3340    -0.4550     6.1770 c3         1 R07       0.060700
     10 C22         -0.7360     0.9650     6.5850 c3         1 R07       0.598900
     11 C23         -1.5590    -1.3700     6.2480 c3         1 R07      -0.116100
     12 C30          2.7450     2.2000     2.9680 ca         1 R07      -0.058300
     13 C31          3.8650     2.9120     2.8900 ca         1 R07       0.061900
     14 C33          4.5470     3.1020     5.6520 c3         1 R07       0.044000
     15 C36          3.7180     1.8840     6.0110 ca         1 R07      -0.044300
     16 C37          2.7470     1.2100     5.4430 ca         1 R07      -0.041300
     17 C39          4.1500     1.4520     7.2980 ca         1 R07      -0.140000
     18 C41          3.5420     0.4300     7.9710 ca         1 R07      -0.108000
     19 C43          2.4670    -0.2180     7.3890 ca         1 R07      -0.158000
     20 C45          2.0760     0.1760     6.1330 ca         1 R07      -0.272000
     21 C47          1.8540     2.1860     1.8690 ca         1 R07      -0.170000
     22 C49          2.0830     2.9190     0.7340 ca         1 R07      -0.113000
     23 C51          3.2220     3.7020     0.6680 ca         1 R07      -0.118000
     24 C53          4.0890     3.6980     1.7250 ca         1 R07      -0.117000
     25 F27          0.3380     1.8330     6.3640 f          1 R07      -0.210967
     26 F28         -1.8340     1.3750     5.8210 f          1 R07      -0.210967
     27 F29         -1.0780     0.9820     7.9410 f          1 R07      -0.210967
     28 N06          1.4410     0.0030     2.3580 na         1 R07      -0.276000
     29 N09          2.1560     0.0180     3.5290 nh         1 R07      -0.411400
     30 N13          0.1870    -0.4420     4.8090 n          1 R07      -0.547800
     31 O15         -2.0440     0.0040     1.3670 oh         1 R07      -0.451100
     32 O17         -0.6290     0.0060    -1.0470 o          1 R07      -0.570100
     33 O18         -1.7150     0.3700     3.9280 o          1 R07      -0.542500
     34 S32          5.2400     3.0380     4.0020 ss         1 R07      -0.252000
     35 H1           1.9560    -0.0010    -0.9370 ha         1 R07       0.176000
     36 H2           3.1650    -0.0000     1.1640 h4         1 R07       0.179000
     37 H3           1.5000    -1.8930     4.0720 h2         1 R07       0.138200
     38 H4           2.1390    -0.8830     5.4170 h2         1 R07       0.138200
     39 H5           1.2220     1.7140     4.2070 h1         1 R07       0.067700
     40 H6           0.4300    -0.8220     6.8520 h1         1 R07       0.105700
     41 H7          -1.3960    -2.2400     5.6230 hc         1 R07       0.065700
     42 H8          -2.4320    -0.8330     5.8980 hc         1 R07       0.065700
     43 H9          -1.7150    -1.6860     7.2720 hc         1 R07       0.065700
     44 H10          3.9060     3.9730     5.7120 h1         1 R07       0.088200
     45 H11          5.3680     3.1670     6.3560 h1         1 R07       0.088200
     46 H12          4.9910     1.9540     7.7610 ha         1 R07       0.133000
     47 H13          3.8800     0.1480     8.9610 ha         1 R07       0.136000
     48 H14          1.9660    -1.0320     7.8980 ha         1 R07       0.133000
     49 H15          1.2370    -0.3190     5.6600 ha         1 R07       0.244000
     50 H16          0.9630     1.5710     1.9250 ha         1 R07       0.161000
     51 H17          1.3770     2.9010    -0.0870 ha         1 R07       0.148000
     52 H18          3.4330     4.2940    -0.2150 ha         1 R07       0.140000
     53 H19          4.9800     4.3120     1.6720 ha         1 R07       0.144000
     54 H20         -2.3950    -0.5470     0.6870 ho         1 R07       0.441000
@<TRIPOS>BOND
     1    18    19 ar
     2    18    17 ar
     3    19    20 ar
     4    17    15 ar
     5    20    16 ar
     6    15    16 ar
     7    15    14 1
     8    16     8 1
     9    14    34 1
    10    34    13 1
    11    11     9 1
    12    13    24 ar
    13    13    12 ar
    14     8    12 1
    15     8    29 1
    16    24    23 ar
    17    12    21 ar
    18    23    22 ar
    19    21    22 ar
    20     9    30 1
    21     9    10 1
    22    29     6 1
    23    29    28 1
    24     6    30 1
    25    25    10 1
    26    30     7 1
    27    27    10 1
    28    10    26 1
    29     7    33 2
    30     7     4 1
    31    28     4 1
    32    28     3 1
    33     4     5 2
    34     3     2 2
    35     5    31 1
    36     5     1 1
    37     2     1 1
    38     1    32 2
    39     2    35 1
    40     3    36 1
    41     6    37 1
    42     6    38 1
    43     8    39 1
    44     9    40 1
    45    11    41 1
    46    11    42 1
    47    11    43 1
    48    14    44 1
    49    14    45 1
    50    17    46 1
    51    18    47 1
    52    19    48 1
    53    20    49 1
    54    21    50 1
    55    22    51 1
    56    23    52 1
    57    24    53 1
    58    31    54 1
@<TRIPOS>SUBSTRUCTURE
     1 R07         1 TEMP              0 ****  ****    0 ROOT
