@<TRIPOS>MOLECULE
R09
   60    64     1     0     0
SMALL
bcc


@<TRIPOS>ATOM
      1 CAB        -0.0220   -0.0280    0.1540 c3        1 R09     -0.059800
      2 CAW         1.4550   -0.0530    0.0480 ca        1 R09     -0.056300
      3 CAQ         2.2260   -0.1040    1.2160 ca        1 R09     -0.027000
      4 CBA         3.6220   -0.1240    1.1790 ca        1 R09     -0.372500
      5 SBI         4.5190   -0.1630    2.5970 sy        1 R09      1.397300
      6 OAE         5.8060    0.3430    2.3650 o         1 R09     -0.654800
      7 OAF         3.7810    0.3880    3.6530 o         1 R09     -0.654800
      8 CAD         4.6240   -1.8390    2.8210 c3        1 R09     -0.357300
      9 CAL         4.2580   -0.0730   -0.0670 ca        1 R09     -0.032000
     10 CAN         3.5160   -0.0230   -1.2410 ca        1 R09     -0.143000
     11 CBB         2.1150   -0.0170   -1.1920 ca        1 R09     -0.059500
     12 CBD         1.3600    0.0540   -2.4480 cc        1 R09      0.437000
     13 NBH         1.6100   -0.7920   -3.5510 na        1 R09     -0.180900
     14 CAC         2.5630   -1.8510   -3.6190 c3        1 R09      0.014600
     15 NAU         0.3680    0.9370   -2.7290 nd        1 R09     -0.631000
     16 CBC        -0.0390    0.6690   -4.0390 cd        1 R09      0.353800
     17 CAY        -1.0700    1.4400   -4.7110 ca        1 R09     -0.068500
     18 CAI        -2.1410    1.9920   -3.9900 ca        1 R09     -0.229800
     19 CAG        -3.1070    2.7370   -4.6870 ca        1 R09      0.386700
     20 NAT        -3.0680    2.9590   -6.0150 nb        1 R09     -0.665000
     21 CAH        -2.0320    2.4300   -6.6940 ca        1 R09      0.386700
     22 CAJ        -1.0130    1.6710   -6.0940 ca        1 R09     -0.229800
     23 CBE         0.7190   -0.4150   -4.5640 cc        1 R09     -0.121600
     24 CAZ         0.6350   -1.0870   -5.8500 ca        1 R09     -0.048000
     25 CAS        -0.5670   -1.5900   -6.3030 ca        1 R09     -0.069000
     26 CBG        -0.6500   -2.2410   -7.5630 ca        1 R09     -0.074000
     27 CAO        -1.8800   -2.7610   -8.0480 ca        1 R09     -0.078000
     28 CAK        -1.9500   -3.3900   -9.2660 ca        1 R09     -0.183000
     29 CAX        -0.7750   -3.5250  -10.0540 ca        1 R09      0.133100
     30 OAV        -0.7470   -4.1450  -11.2880 os        1 R09     -0.325900
     31 CAA        -1.9900   -4.6310  -11.7820 c3        1 R09      0.112700
     32 CAR         0.4420   -3.0280   -9.6110 ca        1 R09     -0.164000
     33 CBF         0.5190   -2.3780   -8.3570 ca        1 R09      0.003000
     34 CAP         1.7480   -1.8520   -7.8670 ca        1 R09     -0.125000
     35 CAM         1.8060   -1.2270   -6.6490 ca        1 R09     -0.114000
     36 HAB1       -0.3580   -0.3460    1.1720 hc        1 R09      0.057700
     37 HAB2       -0.4860   -0.7100   -0.6020 hc        1 R09      0.057700
     38 HAB3       -0.4000    1.0090   -0.0340 hc        1 R09      0.057700
     39 HAQ         1.7160   -0.1110    2.1980 ha        1 R09      0.158000
     40 HAL         5.3620   -0.0510   -0.1110 ha        1 R09      0.159000
     41 HAD1        3.6260   -2.3350    2.8970 h1        1 R09      0.113367
     42 HAD2        5.1680   -2.0840    3.7680 h1        1 R09      0.113367
     43 HAD3        5.1780   -2.3560    2.0000 h1        1 R09      0.113367
     44 HAN         4.0320    0.0320   -2.2120 ha        1 R09      0.144000
     45 HAC1        2.1800   -2.6630   -4.2950 h1        1 R09      0.061367
     46 HAC2        2.7400   -2.2670   -2.5910 h1        1 R09      0.061367
     47 HAC3        3.5370   -1.4680   -4.0310 h1        1 R09      0.061367
     48 HAI        -2.2230    1.8530   -2.9040 ha        1 R09      0.153500
     49 HAJ        -0.1900    1.2650   -6.6980 ha        1 R09      0.153500
     50 HAG        -3.9630    3.1860   -4.1510 h4        1 R09      0.021100
     51 HAH        -2.0170    2.6300   -7.7800 h4        1 R09      0.021100
     52 HAS        -1.4810   -1.4870   -5.6970 ha        1 R09      0.146000
     53 HAM         2.7560   -0.8150   -6.2750 ha        1 R09      0.136000
     54 HAO        -2.7830   -2.6470   -7.4270 ha        1 R09      0.140000
     55 HAK        -2.9090   -3.7870   -9.6300 ha        1 R09      0.142000
     56 HAR         1.3430   -3.1370  -10.2310 ha        1 R09      0.153000
     57 HAA1       -2.4000   -5.4230  -11.1090 h1        1 R09      0.046367
     58 HAA2       -1.7190   -5.0640  -12.7790 h1        1 R09      0.046367
     59 HAA3       -2.7230   -3.7970  -11.9010 h1        1 R09      0.046367
     60 HAP         2.6490   -1.9570   -8.4900 ha        1 R09      0.140000
@<TRIPOS>BOND
     1    1    2 1   
     2    1   36 1   
     3    1   37 1   
     4    1   38 1   
     5    2    3 ar  
     6    2   11 ar  
     7    3    4 ar  
     8    3   39 1   
     9    4    5 1   
    10    4    9 ar  
    11    5    6 2   
    12    5    7 2   
    13    5    8 1   
    14    8   41 1   
    15    8   42 1   
    16    8   43 1   
    17    9   10 ar  
    18    9   40 1   
    19   10   11 ar  
    20   10   44 1   
    21   11   12 1   
    22   12   13 1   
    23   12   15 2   
    24   13   14 1   
    25   13   23 1   
    26   14   45 1   
    27   14   46 1   
    28   14   47 1   
    29   15   16 1   
    30   16   17 1   
    31   16   23 2   
    32   17   18 ar  
    33   17   22 ar  
    34   18   19 ar  
    35   18   48 1   
    36   19   20 ar  
    37   19   50 1   
    38   20   21 ar  
    39   21   22 ar  
    40   21   51 1   
    41   22   49 1   
    42   23   24 1   
    43   24   25 ar  
    44   24   35 ar  
    45   25   26 ar  
    46   25   52 1   
    47   26   27 ar  
    48   26   33 ar  
    49   27   28 ar  
    50   27   54 1   
    51   28   29 ar  
    52   28   55 1   
    53   29   30 1   
    54   29   32 ar  
    55   30   31 1   
    56   31   57 1   
    57   31   58 1   
    58   31   59 1   
    59   32   33 ar  
    60   32   56 1   
    61   33   34 ar  
    62   34   35 ar  
    63   34   60 1   
    64   35   53 1   
@<TRIPOS>SUBSTRUCTURE
     1 R09         1 TEMP              0 ****  ****    0 ROOT
