@<TRIPOS>MOLECULE
molecule
   60    64     1     0     0
SMALL
bcc


@<TRIPOS>ATOM
      1 CAB          0.0000     0.0000     0.0000 c3         1 R09      -0.049800
      2 CAW          1.5070     0.0000     0.0000 ca         1 R09      -0.062300
      3 CAQ          2.1980     0.0000     1.1940 ca         1 R09      -0.035000
      4 CBA          3.5820    -0.0000     1.1960 ca         1 R09      -0.287500
      5 SBI          4.4570    -0.0020     2.7250 sy         1 R09       1.191300
      6 OAE          5.7050     0.6030     2.4150 o          1 R09      -0.615300
      7 OAF          3.5580     0.6020     3.6450 o          1 R09      -0.615300
      8 CAD          4.6830    -1.7590     3.1160 c3         1 R09      -0.227300
      9 CAL          4.2820     0.0010     0.0020 ca         1 R09      -0.041000
     10 CAN          3.6020     0.0020    -1.1990 ca         1 R09      -0.138000
     11 CBB          2.2060    -0.0040    -1.2070 ca         1 R09      -0.064500
     12 CBD          1.4720    -0.0100    -2.4900 cc         1 R09       0.446000
     13 NBH          1.7130    -0.8530    -3.5370 na         1 R09      -0.166900
     14 CAC          2.7330    -1.9040    -3.5900 c3         1 R09       0.027600
     15 NAU          0.4810     0.7930    -2.8030 nd         1 R09      -0.660000
     16 CBC          0.0490     0.5110    -4.0430 cd         1 R09       0.371800
     17 CAY         -1.0520     1.1930    -4.7600 ca         1 R09      -0.067500
     18 CAI         -2.1790     1.6560    -4.0730 ca         1 R09      -0.237800
     19 CAG         -3.1820     2.2860    -4.7800 ca         1 R09       0.413200
     20 NAT         -3.0880     2.4540    -6.0860 nb         1 R09      -0.695000
     21 CAH         -2.0420     2.0320    -6.7730 ca         1 R09       0.413200
     22 CAJ         -0.9910     1.3970    -6.1440 ca         1 R09      -0.237800
     23 CBE          0.8180    -0.5340    -4.5310 cc         1 R09      -0.150600
     24 CAZ          0.7000    -1.1760    -5.8530 ca         1 R09      -0.040000
     25 CAS         -0.5530    -1.5090    -6.3470 ca         1 R09      -0.071000
     26 CBG         -0.6590    -2.1200    -7.6040 ca         1 R09      -0.073000
     27 CAO         -1.9130    -2.4720    -8.1370 ca         1 R09      -0.073000
     28 CAK         -1.9850    -3.0630    -9.3600 ca         1 R09      -0.202000
     29 CAX         -0.8270    -3.3290   -10.0970 ca         1 R09       0.149100
     30 OAV         -0.9300    -3.9220   -11.3160 os         1 R09      -0.327900
     31 CAA         -2.2460    -4.2400   -11.7730 c3         1 R09       0.127700
     32 CAR          0.4060    -3.0020    -9.6100 ca         1 R09      -0.167000
     33 CBF          0.5170    -2.3890    -8.3520 ca         1 R09       0.005000
     34 CAP          1.7730    -2.0400    -7.8230 ca         1 R09      -0.123000
     35 CAM          1.8570    -1.4440    -6.6070 ca         1 R09      -0.115000
     36 HAB1        -0.3610     0.9380    -0.4040 hc         1 R09       0.054367
     37 HAB2        -0.3610    -0.1190     1.0140 hc         1 R09       0.054367
     38 HAB3        -0.3610    -0.8190    -0.6100 hc         1 R09       0.054367
     39 HAQ          1.6570     0.0080     2.1320 ha         1 R09       0.157000
     40 HAL          5.3650     0.0030     0.0100 ha         1 R09       0.153000
     41 HAD1         3.7240    -2.2620     3.0850 h1         1 R09       0.098033
     42 HAD2         5.3500    -2.2080     2.3890 h1         1 R09       0.098033
     43 HAD3         5.1100    -1.8560     4.1070 h1         1 R09       0.098033
     44 HAN          4.1510     0.0010    -2.1340 ha         1 R09       0.138000
     45 HAC1         3.6510    -1.4960    -3.9940 h1         1 R09       0.059700
     46 HAC2         2.9140    -2.2810    -2.5910 h1         1 R09       0.059700
     47 HAC3         2.3870    -2.7120    -4.2230 h1         1 R09       0.059700
     48 HAI         -2.2630     1.5230    -3.0020 ha         1 R09       0.149500
     49 HAJ         -0.1370     1.0530    -6.7140 ha         1 R09       0.149500
     50 HAG         -4.0580     2.6490    -4.2570 h4         1 R09       0.022600
     51 HAH         -2.0060     2.1930    -7.8440 h4         1 R09       0.022600
     52 HAS         -1.4250    -1.4280    -5.7100 ha         1 R09       0.147000
     53 HAM          2.8280    -1.1680    -6.2130 ha         1 R09       0.130000
     54 HAO         -2.8180    -2.2710    -7.5770 ha         1 R09       0.140000
     55 HAK         -2.9520    -3.3320    -9.7670 ha         1 R09       0.138000
     56 HAR          1.2950    -3.2140   -10.1920 ha         1 R09       0.149000
     57 HAA1        -2.1870    -4.7050   -12.7490 h1         1 R09       0.043033
     58 HAA2        -2.7150    -4.9240   -11.0750 h1         1 R09       0.043033
     59 HAA3        -2.8350    -3.3330   -11.8390 h1         1 R09       0.043033
     60 HAP          2.6740    -2.2400    -8.3910 ha         1 R09       0.138000
@<TRIPOS>BOND
     1     1     2 1
     2     2     3 ar
     3     2    11 ar
     4     3     4 ar
     5     4     5 1
     6     4     9 ar
     7     5     6 2
     8     5     7 2
     9     5     8 1
    10     9    10 ar
    11    10    11 ar
    12    11    12 1
    13    12    13 1
    14    12    15 2
    15    13    14 1
    16    13    23 1
    17    15    16 1
    18    16    17 1
    19    16    23 2
    20    17    18 ar
    21    17    22 ar
    22    18    19 ar
    23    19    20 ar
    24    20    21 ar
    25    21    22 ar
    26    23    24 1
    27    24    25 ar
    28    24    35 ar
    29    25    26 ar
    30    26    27 ar
    31    26    33 ar
    32    27    28 ar
    33    28    29 ar
    34    29    30 1
    35    29    32 ar
    36    30    31 1
    37    32    33 ar
    38    33    34 ar
    39    34    35 ar
    40     1    36 1
    41     1    37 1
    42     1    38 1
    43     3    39 1
    44     9    40 1
    45     8    41 1
    46     8    42 1
    47     8    43 1
    48    10    44 1
    49    14    45 1
    50    14    46 1
    51    14    47 1
    52    18    48 1
    53    22    49 1
    54    19    50 1
    55    21    51 1
    56    25    52 1
    57    35    53 1
    58    27    54 1
    59    28    55 1
    60    32    56 1
    61    31    57 1
    62    31    58 1
    63    31    59 1
    64    34    60 1
@<TRIPOS>SUBSTRUCTURE
     1 R09         1 TEMP              0 ****  ****    0 ROOT
