@<TRIPOS>MOLECULE
R10
   23    22     1     0     0
SMALL
bcc


@<TRIPOS>ATOM
      1 O2          0.3640    0.3250    0.4530 o         1 R10     -0.872800
      2 C5          1.5000   -0.0860    0.0530 c         1 R10      0.881600
      3 O1          2.4050   -0.4680    0.8520 o         1 R10     -0.872800
      4 O3          2.8680   -0.9250   -1.7920 oh        1 R10     -0.606800
      5 C3          1.8990    1.3290   -2.0040 c3        1 R10      0.123100
      6 O4          0.6130    1.9320   -2.0530 oh        1 R10     -0.619800
      7 C2          2.5340    1.3940   -3.4090 c3        1 R10      0.127100
      8 O5          3.9240    1.1520   -3.2110 oh        1 R10     -0.666800
      9 C1          2.2810    2.7410   -4.1380 c3        1 R10      0.197400
     10 C4          1.7570   -0.1130   -1.4680 c3        1 R10      0.002100
     11 O6          3.3710    3.0700   -4.9090 os        1 R10     -0.586200
     12 P1          3.0490    3.6960   -6.4990 p5        1 R10      1.323900
     13 O9          1.9010    2.8490   -6.9820 o         1 R10     -0.939500
     14 O7          2.7080    5.1400   -6.2330 o         1 R10     -0.939500
     15 O8          4.3730    3.4580   -7.1760 o         1 R10     -0.939500
     16 H1C1        1.3550    2.6480   -4.7680 h1        1 R10      0.010200
     17 H1C2        2.1130    3.5230   -3.3390 h1        1 R10      0.010200
     18 H2          2.1340    0.5440   -4.0280 h1        1 R10      0.028700
     19 H5          4.3980    1.7210   -3.8390 ho        1 R10      0.442000
     20 H3          2.5500    1.9130   -1.2920 h1        1 R10      0.025700
     21 H4          0.1890    1.7130   -1.2080 ho        1 R10      0.414000
     22 HA          0.8860   -0.6110   -1.9780 h1        1 R10      0.049700
     23 HB          3.6490   -0.4420   -1.4950 ho        1 R10      0.410000
@<TRIPOS>BOND
     1    1    2 1   
     2    2    3 1   
     3    2   10 1   
     4    4   10 1   
     5    4   23 1   
     6    5    6 1   
     7    5    7 1   
     8    5   10 1   
     9    5   20 1   
    10    6   21 1   
    11    7    8 1   
    12    7    9 1   
    13    7   18 1   
    14    8   19 1   
    15    9   11 1   
    16    9   16 1   
    17    9   17 1   
    18   10   22 1   
    19   11   12 1   
    20   12   13 1   
    21   12   14 1   
    22   12   15 1   
@<TRIPOS>SUBSTRUCTURE
     1 R10         1 TEMP              0 ****  ****    0 ROOT
