@<TRIPOS>MOLECULE
molecule
   23    22     1     0     0
SMALL
bcc


@<TRIPOS>ATOM
      1 O2           0.0000     0.0000     0.0000 o          1 R10      -0.865800
      2 C5           1.3430     0.0000     0.0000 c          1 R10       0.867600
      3 O1           1.9450     0.0000     1.0470 o          1 R10      -0.865800
      4 O3           3.4970    -0.1180    -1.0450 oh         1 R10      -0.583800
      5 C3           1.8240     1.3060    -2.0520 c3         1 R10       0.171100
      6 O4           0.4240     1.4230    -2.3120 oh         1 R10      -0.582800
      7 C2           2.5900     1.3050    -3.3760 c3         1 R10       0.126100
      8 O5           3.9900     1.1870    -3.1170 oh         1 R10      -0.598800
      9 C1           2.3170     2.6120    -4.1230 c3         1 R10       0.198400
     10 C4           2.0970    -0.0000    -1.3040 c3         1 R10       0.031100
     11 O6           2.9370     2.5630    -5.4100 os         1 R10      -0.595200
     12 P1           2.8560     3.7730    -6.4700 p5         1 R10       1.208900
     13 O9           1.4370     4.1160    -6.7180 o          1 R10      -0.926500
     14 O7           3.6230     5.0590    -5.8760 o          1 R10      -0.926500
     15 O8           3.5500     3.3250    -7.8510 o          1 R10      -0.926500
     16 H1C1         1.2480     2.7440    -4.2420 h1         1 R10       0.019200
     17 H1C2         2.7230     3.4430    -3.5580 h1         1 R10       0.019200
     18 H2           2.2630     0.4680    -3.9820 h1         1 R10       0.024700
     19 H5           4.4030     0.7180    -3.8230 ho         1 R10       0.389000
     20 H3           2.1510     2.1430    -1.4470 h1         1 R10       0.042700
     21 H4           0.0880     2.1920    -1.8810 ho         1 R10       0.394000
     22 HA           1.7700    -0.8370    -1.9100 h1         1 R10       0.017700
     23 HB           3.7020    -1.0110    -0.8240 ho         1 R10       0.363000
@<TRIPOS>BOND
     1    13    12 1
     2    12    14 1
     3    12    15 1
     4    12    11 1
     5    11     9 1
     6     9     7 1
     7     7     8 1
     8     7     5 1
     9     5     6 1
    10     5    10 1
    11    10     4 1
    12    10     2 1
    13     2     3 1
    14     2     1 1
    15     9    16 1
    16     9    17 1
    17     7    18 1
    18     8    19 1
    19     5    20 1
    20     6    21 1
    21    10    22 1
    22     4    23 1
@<TRIPOS>SUBSTRUCTURE
     1 R10         1 TEMP              0 ****  ****    0 ROOT
