@<TRIPOS>MOLECULE
molecule
   58    62     1     0     0
SMALL
bcc


@<TRIPOS>ATOM
      1 N1           0.0000     0.0000     0.0000 n2         1 R11      -0.746100
      2 N2           1.9930     0.0000    -1.1920 nz         1 R11      -0.740600
      3 C1           1.3040     0.0000     0.0000 ce         1 R11       0.531800
      4 C2           2.0430     0.0000     1.2810 ca         1 R11      -0.315900
      5 C3           1.3460    -0.0000     2.4900 ca         1 R11      -0.044500
      6 C4           2.0370    -0.0010     3.6820 ca         1 R11      -0.194500
      7 C5           3.4280    -0.0010     3.6810 ca         1 R11       0.256600
      8 C6           4.1240     0.0050     2.4770 ca         1 R11      -0.194500
      9 C7           3.4380     0.0010     1.2830 ca         1 R11      -0.044500
     10 N            4.1230    -0.0010     4.8880 nu         1 R11      -0.783600
     11 C            5.5880    -0.0020     4.8880 c3         1 R11       0.232500
     12 N3           6.3380     1.0640     7.0120 nc         1 R11      -0.570100
     13 C8           6.0900    -0.0020     6.3090 cd         1 R11       0.366800
     14 N9           6.3500    -1.1160     7.0430 na         1 R11      -0.145300
     15 C3A          6.7820    -0.7000     8.2840 ca         1 R11      -0.071200
     16 C7A          6.7740     0.7050     8.2460 ca         1 R11       0.070400
     17 C10          7.1950    -1.3560     9.4360 ca         1 R11      -0.145000
     18 C11          7.5840    -0.6240    10.5370 ca         1 R11      -0.100000
     19 C12          7.5700     0.7620    10.5000 ca         1 R11      -0.099300
     20 C13          7.1730     1.4260     9.3740 ca         1 R11      -0.044000
     21 C14          6.1940    -2.5050     6.5990 c3         1 R11       0.036600
     22 C9           7.9990     1.5460    11.7150 c3         1 R11       0.104600
     23 N4           6.8350     1.7980    12.5680 na         1 R11      -0.153300
     24 C15          6.3850     1.0020    13.5740 cc         1 R11       0.426800
     25 N16          5.3310     1.5280    14.1240 nd         1 R11      -0.599100
     26 C17          5.0320     2.7000    13.5070 ca         1 R11       0.095400
     27 C18          5.9970     2.8920    12.5040 ca         1 R11      -0.090200
     28 C19          4.0280     3.6540    13.6870 ca         1 R11      -0.069000
     29 C20          3.9870     4.7600    12.8860 ca         1 R11      -0.147000
     30 C21          4.9370     4.9480    11.8920 ca         1 R11      -0.116000
     31 C22          5.9380     4.0180    11.6970 ca         1 R11      -0.128000
     32 C23          7.0180    -0.3010    13.9930 c3         1 R11      -0.095400
     33 HN1         -0.5000     0.0000     0.8670 hn         1 R11       0.479400
     34 HN21         2.5660    -0.8190    -1.2470 hn         1 R11       0.471133
     35 HN22         2.5710     0.8160    -1.2440 hn         1 R11       0.471133
     36 HC3          0.2630    -0.0010     2.4920 ha         1 R11       0.122500
     37 HC4          1.4960    -0.0040     4.6210 ha         1 R11       0.159500
     38 HC6          5.2070     0.0060     2.4780 ha         1 R11       0.159500
     39 HC7          3.9810     0.0050     0.3460 ha         1 R11       0.122500
     40 HN           3.6230     0.0450     5.7530 hn         1 R11       0.468800
     41 H1C          5.9480    -0.8860     4.3780 h1         1 R11       0.067700
     42 H2C          5.9490     0.8830     4.3780 h1         1 R11       0.067700
     43 H10C         7.3100    -2.4240     9.5810 ha         1 R11       0.138000
     44 H11C         8.2650    -1.2760    11.0710 ha         1 R11       0.148000
     45 H13C         7.5590     2.3680     9.0040 ha         1 R11       0.158000
     46 H141         5.1530    -2.7940     6.6800 h1         1 R11       0.056033
     47 H142         6.5140    -2.5930     5.5680 h1         1 R11       0.056033
     48 H143         6.7980    -3.1530     7.2220 h1         1 R11       0.056033
     49 HC91         8.7370     0.9790    12.2680 h1         1 R11       0.069200
     50 HC92         8.4290     2.4900    11.4020 h1         1 R11       0.069200
     51 H19C         3.2810     3.5170    14.4600 ha         1 R11       0.143000
     52 H20C         3.2070     5.4980    13.0280 ha         1 R11       0.133000
     53 H21C         4.8920     5.8300    11.2650 ha         1 R11       0.131000
     54 H22C         6.6770     4.1700    10.9190 ha         1 R11       0.122000
     55 H231         6.7390    -1.0790    13.2930 hc         1 R11       0.058033
     56 H232         6.6730    -0.5680    14.9850 hc         1 R11       0.058033
     57 H233         8.0950    -0.1930    14.0020 hc         1 R11       0.058033
     58 H23          1.3440     0.0030    -1.9540 hn         1 R11       0.471133
@<TRIPOS>BOND
     1     1     3 2
     2     1    33 1
     3     2     3 1
     4     2    34 1
     5     2    35 1
     6     3     4 1
     7     4     5 ar
     8     4     9 ar
     9     5     6 ar
    10     5    36 1
    11     6     7 ar
    12     6    37 1
    13     7     8 ar
    14     7    10 1
    15     8     9 ar
    16     8    38 1
    17     9    39 1
    18    10    11 1
    19    10    40 1
    20    11    13 1
    21    11    41 1
    22    11    42 1
    23    12    13 2
    24    12    16 1
    25    13    14 1
    26    14    15 1
    27    14    21 1
    28    15    16 ar
    29    15    17 ar
    30    16    20 ar
    31    17    18 ar
    32    17    43 1
    33    18    19 ar
    34    18    44 1
    35    19    20 ar
    36    19    22 1
    37    20    45 1
    38    21    46 1
    39    21    47 1
    40    21    48 1
    41    22    23 1
    42    22    49 1
    43    22    50 1
    44    23    24 1
    45    23    27 1
    46    24    25 2
    47    24    32 1
    48    25    26 1
    49    26    27 ar
    50    26    28 ar
    51    27    31 ar
    52    28    29 ar
    53    28    51 1
    54    29    30 ar
    55    29    52 1
    56    30    31 ar
    57    30    53 1
    58    31    54 1
    59    32    55 1
    60    32    56 1
    61    32    57 1
    62    58     2 1
@<TRIPOS>SUBSTRUCTURE
     1 R11         1 TEMP              0 ****  ****    0 ROOT
