@<TRIPOS>MOLECULE
R11
   58    62     1     0     0
SMALL
bcc


@<TRIPOS>ATOM
      1 N1           0.0000     0.0000     0.0000 n2         1 R11      -0.495100
      2 N2           1.9930     0.0000    -1.1920 nz         1 R11       0.121400
      3 C1           1.3040     0.0000     0.0000 ce         1 R11       0.253800
      4 C2           2.0430     0.0000     1.2810 ca         1 R11      -0.284900
      5 C3           1.3460    -0.0000     2.4900 ca         1 R11       0.003500
      6 C4           2.0370    -0.0010     3.6820 ca         1 R11      -0.182500
      7 C5           3.4280    -0.0010     3.6810 ca         1 R11       0.112600
      8 C6           4.1240     0.0050     2.4770 ca         1 R11      -0.182500
      9 C7           3.4380     0.0010     1.2830 ca         1 R11       0.003500
     10 N            4.1230    -0.0010     4.8880 nu         1 R11      -0.362600
     11 C            5.5880    -0.0020     4.8880 c3         1 R11       0.168500
     12 N3           6.3380     1.0640     7.0120 nc         1 R11      -0.479100
     13 C8           6.0900    -0.0020     6.3090 cd         1 R11       0.158800
     14 N9           6.3500    -1.1160     7.0430 na         1 R11       0.325700
     15 C3A          6.7820    -0.7000     8.2840 ca         1 R11      -0.242200
     16 C7A          6.7740     0.7050     8.2460 ca         1 R11       0.040400
     17 C10          7.1950    -1.3560     9.4360 ca         1 R11      -0.103000
     18 C11          7.5840    -0.6240    10.5370 ca         1 R11      -0.080000
     19 C12          7.5700     0.7620    10.5000 ca         1 R11      -0.100300
     20 C13          7.1730     1.4260     9.3740 ca         1 R11      -0.019000
     21 C14          6.1940    -2.5050     6.5990 c3         1 R11      -0.006400
     22 C9           7.9990     1.5460    11.7150 c3         1 R11       0.027600
     23 N4           6.8350     1.7980    12.5680 na         1 R11       0.309700
     24 C15          6.3850     1.0020    13.5740 cc         1 R11       0.220800
     25 N16          5.3310     1.5280    14.1240 nd         1 R11      -0.515100
     26 C17          5.0320     2.7000    13.5070 ca         1 R11       0.066400
     27 C18          5.9970     2.8920    12.5040 ca         1 R11      -0.258200
     28 C19          4.0280     3.6540    13.6870 ca         1 R11      -0.037000
     29 C20          3.9870     4.7600    12.8860 ca         1 R11      -0.120000
     30 C21          4.9370     4.9480    11.8920 ca         1 R11      -0.091000
     31 C22          5.9380     4.0180    11.6970 ca         1 R11      -0.091000
     32 C23          7.0180    -0.3010    13.9930 c3         1 R11       0.013600
     33 HN1         -0.5010     0.0000    -0.8670 hn         1 R11       0.333400
     34 HN21         1.3440    -0.0120    -1.9540 hn         1 R11       0.224467
     35 HN22         2.5600     0.8230    -1.2500 hn         1 R11       0.224467
     36 HC3          0.2630    -0.0010     2.4920 ha         1 R11       0.100000
     37 HC4          1.4960    -0.0040     4.6210 ha         1 R11       0.132500
     38 HC6          5.2070     0.0060     2.4780 ha         1 R11       0.132500
     39 HC7          3.9810     0.0050     0.3460 ha         1 R11       0.100000
     40 HN           3.6230     0.0510     5.7530 hn         1 R11       0.313800
     41 H1C          5.9480    -0.8860     4.3780 h1         1 R11       0.031700
     42 H2C          5.9490     0.8830     4.3780 h1         1 R11       0.031700
     43 H10C         7.2990    -2.4260     9.5690 ha         1 R11       0.112000
     44 H11C         8.2630    -1.2780    11.0710 ha         1 R11       0.121000
     45 H13C         7.5510     2.3720     9.0050 ha         1 R11       0.128000
     46 H141         5.1390    -2.7400     6.5140 h1         1 R11       0.025033
     47 H142         6.6710    -2.6320     5.6350 h1         1 R11       0.025033
     48 H143         6.6540    -3.1680     7.3210 h1         1 R11       0.025033
     49 HC91         8.4290     2.4900    11.4020 h1         1 R11       0.040200
     50 HC92         8.7370     0.9790    12.2680 h1         1 R11       0.040200
     51 H19C         3.2810     3.5170    14.4600 ha         1 R11       0.111000
     52 H20C         3.2070     5.4980    13.0280 ha         1 R11       0.105000
     53 H21C         4.8920     5.8300    11.2650 ha         1 R11       0.102000
     54 H22C         6.6770     4.1700    10.9190 ha         1 R11       0.099000
     55 H231         6.6760    -1.0950    13.3390 hc         1 R11       0.015367
     56 H232         6.7350    -0.5280    15.0140 hc         1 R11       0.015367
     57 H233         8.0960    -0.2180    13.9260 hc         1 R11       0.015367
     58 H23          2.5780    -0.8110    -1.2400 hn         1 R11       0.224467
@<TRIPOS>BOND
     1     1     3 2   
     2     1    33 1   
     3     2     3 1   
     4     2    34 1   
     5     2    35 1   
     6     2    58 1   
     7     3     4 1   
     8     4     5 ar  
     9     4     9 ar  
    10     5     6 ar  
    11     5    36 1   
    12     6     7 ar  
    13     6    37 1   
    14     7     8 ar  
    15     7    10 1   
    16     8     9 ar  
    17     8    38 1   
    18     9    39 1   
    19    10    11 1   
    20    10    40 1   
    21    11    13 1   
    22    11    41 1   
    23    11    42 1   
    24    12    13 2   
    25    12    16 1   
    26    13    14 1   
    27    14    15 1   
    28    14    21 1   
    29    15    16 ar  
    30    15    17 ar  
    31    16    20 ar  
    32    17    18 ar  
    33    17    43 1   
    34    18    19 ar  
    35    18    44 1   
    36    19    20 ar  
    37    19    22 1   
    38    20    45 1   
    39    21    46 1   
    40    21    47 1   
    41    21    48 1   
    42    22    23 1   
    43    22    49 1   
    44    22    50 1   
    45    23    24 1   
    46    23    27 1   
    47    24    25 2   
    48    24    32 1   
    49    25    26 1   
    50    26    27 ar  
    51    26    28 ar  
    52    27    31 ar  
    53    28    29 ar  
    54    28    51 1   
    55    29    30 ar  
    56    29    52 1   
    57    30    31 ar  
    58    30    53 1   
    59    31    54 1   
    60    32    55 1   
    61    32    56 1   
    62    32    57 1   
@<TRIPOS>SUBSTRUCTURE
     1 R11         1 TEMP              0 ****  ****    0 ROOT
