@<TRIPOS>MOLECULE
molecule
   46    46     1     0     0
SMALL
bcc


@<TRIPOS>ATOM
      1 C1           0.0000     0.0000     0.0000 ca         1 R12       0.103100
      2 C2           1.3900     0.0000     0.0000 ca         1 R12      -0.104300
      3 C3           2.0800     0.0000     1.1910 ca         1 R12      -0.058300
      4 C4           1.3790    -0.0010     2.4050 ca         1 R12      -0.046800
      5 C5          -0.0210    -0.0010     2.3970 ca         1 R12      -0.060300
      6 C6          -0.7010     0.0050     1.2000 ca         1 R12      -0.185000
      7 C7           2.1100    -0.0070     3.6780 ce         1 R12      -0.179200
      8 C8           1.7930     0.8880     4.6460 cf         1 R12      -0.075000
      9 C9           2.4930     0.8820     5.8660 cf         1 R12      -0.174200
     10 C10          2.1730     1.7820     6.8400 ce         1 R12      -0.056000
     11 C11          2.8720     1.7760     8.0570 ce         1 R12      -0.240000
     12 C12          2.5520     2.6770     9.0320 cf         1 R12      -0.030000
     13 C13          3.2500     2.6720    10.2480 cf         1 R12      -0.160200
     14 C14          2.9310     3.5710    11.2230 ce         1 R12      -0.106200
     15 C15          3.7440     3.6890    12.3670 c          1 R12       0.852800
     16 C18          4.3520     1.6700    10.4790 c3         1 R12      -0.027900
     17 C19          3.5960    -0.1190     6.0970 c3         1 R12      -0.041900
     18 C20         -0.7830    -0.0020     3.6980 c3         1 R12      -0.047800
     19 C23          3.5870    -0.0000     1.1900 c3         1 R12      -0.046800
     20 O1          -0.6760     0.0020    -1.1780 oh         1 R12      -0.520100
     21 O2           4.7590     3.0240    12.4640 o          1 R12      -0.834800
     22 O3           3.3970     4.5390    13.3570 o          1 R12      -0.834800
     23 H2          -1.7840     0.0060     1.1940 ha         1 R12       0.129000
     24 H3           2.9020    -0.7260     3.8440 ha         1 R12       0.139000
     25 H4           1.0000     1.6080     4.4800 ha         1 R12       0.122000
     26 H5           1.3810     2.5020     6.6730 ha         1 R12       0.113000
     27 H6           3.6650     1.0580     8.2230 ha         1 R12       0.145000
     28 H7           1.7590     3.3960     8.8660 ha         1 R12       0.110000
     29 H8           2.1360     4.2880    11.0540 ha         1 R12       0.106000
     30 H9           4.3290     1.3390    11.5110 hc         1 R12       0.041033
     31 H10          5.3100     2.1320    10.2700 hc         1 R12       0.041033
     32 H11          4.2110     0.8190     9.8240 hc         1 R12       0.041033
     33 H12          3.5330    -0.9040     5.3540 hc         1 R12       0.037700
     34 H13          3.4920    -0.5490     7.0860 hc         1 R12       0.037700
     35 H14          4.5560     0.3770     6.0180 hc         1 R12       0.037700
     36 H15         -1.7790    -0.3930     3.5320 hc         1 R12       0.046033
     37 H16         -0.2660    -0.6240     4.4190 hc         1 R12       0.046033
     38 H17         -0.8510     1.0100     4.0780 hc         1 R12       0.046033
     39 H18          3.9480    -1.0130     1.3210 hc         1 R12       0.045033
     40 H19          3.9490     0.6200     2.0010 hc         1 R12       0.045033
     41 H20          3.9480     0.3930     0.2470 hc         1 R12       0.045033
     42 H21         -1.2630     0.7390    -1.2020 ho         1 R12       0.413000
     43 C16          2.1430     0.0000    -1.3050 c3         1 R12      -0.041800
     44 H1           2.6650     0.9430    -1.4210 hc         1 R12       0.042700
     45 H23          1.4460    -0.1300    -2.1240 hc         1 R12       0.042700
     46 H24          2.8600    -0.8120    -1.3090 hc         1 R12       0.042700
@<TRIPOS>BOND
     1    21    15 1
     2    15    22 1
     3    15    14 1
     4    14    13 2
     5    13    16 1
     6    13    12 1
     7    12    11 2
     8    11    10 1
     9    10     9 2
    10     9    17 1
    11     9     8 1
    12     8     7 2
    13     7     4 1
    14    18     5 1
    15     4     5 ar
    16     4     3 ar
    17     5     6 ar
    18    19     3 1
    19     3     2 ar
    20     6     1 ar
    21     2     1 ar
    22     1    20 1
    23     6    23 1
    24     7    24 1
    25     8    25 1
    26    10    26 1
    27    11    27 1
    28    12    28 1
    29    14    29 1
    30    16    30 1
    31    16    31 1
    32    16    32 1
    33    17    33 1
    34    17    34 1
    35    17    35 1
    36    18    36 1
    37    18    37 1
    38    18    38 1
    39    19    39 1
    40    19    40 1
    41    19    41 1
    42    20    42 1
    43     2    43 1
    44    43    44 1
    45    43    45 1
    46    43    46 1
@<TRIPOS>SUBSTRUCTURE
     1 R12         1 TEMP              0 ****  ****    0 ROOT
