@<TRIPOS>MOLECULE
R12
   46    45     1     0     0
SMALL
bcc


@<TRIPOS>ATOM
      1 C1          0.1230   -1.4660   -0.8760 c3        1 R12      0.003000
      2 C2          1.3780   -0.6920   -0.5950 c2        1 R12     -0.054000
      3 C3          1.5050   -0.0520    0.6020 c2        1 R12     -0.134000
      4 C4          0.4120   -0.0320    1.5440 c2        1 R12      0.005000
      5 C5         -0.7970   -0.6160    1.2570 c2        1 R12     -0.197000
      6 C6         -1.0370   -1.1920   -0.0120 c1        1 R12     -0.122000
      7 C7          1.7110    1.6260    4.2030 c1        1 R12      0.065000
      8 C8          2.2080    2.2630    5.2280 c2        1 R12     -0.411000
      9 C9          3.2630    1.8030    6.1850 c3        1 R12     -0.030000
     10 C10         3.1780    2.5870    7.4250 c1        1 R12     -0.180000
     11 C11         3.6300    2.1150    8.6530 c2        1 R12     -0.301000
     12 C12         3.5690    2.9440    9.7470 c2        1 R12      0.132000
     13 C13         4.0040    2.6100   11.0740 c2        1 R12     -0.211000
     14 C14         3.8700    3.5180   12.0730 c2        1 R12     -0.039000
     15 C15         4.2280    3.2940   13.5310 c2        1 R12      0.341000
     16 C18         4.5960    1.2690   11.3120 c3        1 R12     -0.168000
     17 C19         3.2240    0.2920    6.3330 c3        1 R12     -0.228000
     18 C20        -1.9170   -0.5790    2.2280 c3        1 R12     -0.154000
     19 C23         2.7510    0.6590    0.9770 c3        1 R12     -0.185000
     20 O1         -0.1990   -1.4130   -2.2600 oh        1 R12     -0.320000
     21 O2          5.4260    3.0370   13.8260 o         1 R12     -0.544500
     22 O3          3.2800    3.4130   14.3560 o         1 R12     -0.544500
     23 H2          0.3740   -2.5610   -0.6480 h1        1 R12      0.142000
     24 H3          0.5840    0.5060    2.5020 ha        1 R12      0.182000
     25 H4          1.8320    3.2840    5.4680 ha        1 R12      0.220000
     26 H5          4.2640    2.0980    5.7330 hc        1 R12      0.116000
     27 H6          4.0330    1.0930    8.7840 ha        1 R12      0.090000
     28 H7          3.1520    3.9620    9.6050 ha        1 R12      0.127000
     29 H8          3.4360    4.5110   11.8680 ha        1 R12      0.106000
     30 H9          4.9890    1.1980   12.3590 hc        1 R12      0.081667
     31 H10         3.8290    0.4710   11.1560 hc        1 R12      0.081667
     32 H11         5.4420    1.0860   10.6050 hc        1 R12      0.081667
     33 H12         4.1100   -0.0580    6.9160 hc        1 R12      0.074333
     34 H13         2.3010   -0.0230    6.8750 hc        1 R12      0.074333
     35 H14         3.2370   -0.2040    5.3330 hc        1 R12      0.074333
     36 H15        -2.8420   -0.1930    1.7320 hc        1 R12      0.080667
     37 H16        -1.6780    0.0720    3.1040 hc        1 R12      0.080667
     38 H17        -2.1300   -1.6120    2.6010 hc        1 R12      0.080667
     39 H18         2.9050    1.5450    0.3110 hc        1 R12      0.089667
     40 H19         2.7080    1.0180    2.0380 hc        1 R12      0.089667
     41 H20         3.6340   -0.0180    0.8630 hc        1 R12      0.089667
     42 H21        -1.1450   -1.2210   -2.3180 ho        1 R12      0.225000
     43 C16         2.4610   -0.7370   -1.5960 c3        1 R12     -0.189000
     44 H1          3.2510   -1.4630   -1.2740 hc        1 R12      0.093667
     45 H23         2.9390    0.2700   -1.7000 hc        1 R12      0.093667
     46 H24         2.0680   -1.0540   -2.5950 hc        1 R12      0.093667
@<TRIPOS>BOND
     1    1    2 1   
     2    1    6 1   
     3    1   20 1   
     4    1   23 1   
     5    2    3 1   
     6    2   43 1   
     7    3    4 1   
     8    3   19 1   
     9    4    5 1   
    10    4   24 1   
    11    5    6 1   
    12    5   18 1   
    13    7    8 1   
    14    8    9 1   
    15    8   25 1   
    16    9   10 1   
    17    9   17 1   
    18    9   26 1   
    19   10   11 1   
    20   11   12 1   
    21   11   27 1   
    22   12   13 1   
    23   12   28 1   
    24   13   14 1   
    25   13   16 1   
    26   14   15 1   
    27   14   29 1   
    28   15   21 1   
    29   15   22 1   
    30   16   30 1   
    31   16   31 1   
    32   16   32 1   
    33   17   33 1   
    34   17   34 1   
    35   17   35 1   
    36   18   36 1   
    37   18   37 1   
    38   18   38 1   
    39   19   39 1   
    40   19   40 1   
    41   19   41 1   
    42   20   42 1   
    43   43   44 1   
    44   43   45 1   
    45   43   46 1   
@<TRIPOS>SUBSTRUCTURE
     1 R12         1 TEMP              0 ****  ****    0 ROOT
