@<TRIPOS>MOLECULE
molecule
   54    55     1     0     0
SMALL
bcc


@<TRIPOS>ATOM
      1 C1           0.0000     0.0000     0.0000 c3         1 R13      -0.016700
      2 C2           1.5270     0.0000     0.0000 c3         1 R13      -0.071400
      3 C3           2.0100     0.0000     1.4550 c3         1 R13      -0.070400
      4 C4           1.6890     1.3600     2.0690 c3         1 R13      -0.016700
      5 C5           0.2420     1.7180     1.8420 ca         1 R13      -0.079300
      6 C6          -0.3070     2.7170     2.6390 ca         1 R13      -0.131000
      7 C7          -1.6160     3.1050     2.4790 ca         1 R13      -0.126000
      8 C8          -2.4060     2.4870     1.5030 ca         1 R13      -0.020800
      9 C9          -1.8520     1.4790     0.7120 ca         1 R13      -0.124000
     10 C10         -0.5310     1.1000     0.8830 ca         1 R13      -0.065300
     11 C11         -3.8060     2.8920     1.3170 ce         1 R13      -0.146400
     12 C12         -4.1030     4.1690     0.9830 cf         1 R13      -0.074000
     13 C13         -5.4320     4.5290     0.6850 cf         1 R13      -0.231000
     14 C14         -5.7160     5.7830     0.2420 ce         1 R13      -0.041000
     15 C15         -7.0420     6.1430    -0.0560 ce         1 R13      -0.154200
     16 C16         -7.3250     7.3990    -0.5000 cf         1 R13      -0.115200
     17 C17         -8.6490     7.8830    -0.4490 c          1 R13       0.856800
     18 C18          2.5780     2.4270     1.4270 c3         1 R13      -0.080100
     19 C19          1.9670     1.3120     3.5730 c3         1 R13      -0.080100
     20 C20         -0.5040    -1.3490     0.5170 c3         1 R13      -0.080600
     21 C21         -0.5040     0.2140    -1.4280 c3         1 R13      -0.080600
     22 C22         -4.9120     1.8830     1.4970 c3         1 R13      -0.032900
     23 C23         -8.1510     5.1370     0.1130 c3         1 R13      -0.030900
     24 O1          -9.5150     7.2310     0.1010 o          1 R13      -0.837300
     25 O2          -8.9550     9.0720    -1.0110 o          1 R13      -0.837300
     26 H21          1.8910     0.8870    -0.5040 hc         1 R13       0.042700
     27 H22          1.8910    -0.8870    -0.5040 hc         1 R13       0.042700
     28 H31          3.0820    -0.1500     1.4710 hc         1 R13       0.044200
     29 H32          1.4780    -0.7680     2.0030 hc         1 R13       0.044200
     30 H6           0.3040     3.1950     3.3950 ha         1 R13       0.124000
     31 H7          -2.0320     3.8890     3.1010 ha         1 R13       0.136000
     32 H9          -2.4570     0.9960    -0.0460 ha         1 R13       0.136000
     33 H12         -3.3070     4.8930     0.8540 ha         1 R13       0.117000
     34 H13         -6.2290     3.8060     0.8090 ha         1 R13       0.139000
     35 H14         -4.9190     6.5060     0.1180 ha         1 R13       0.110000
     36 H16         -6.5160     8.1090    -0.6240 ha         1 R13       0.103000
     37 H181         3.5540     2.0060     1.2190 hc         1 R13       0.034367
     38 H182         2.6830     3.2650     2.1050 hc         1 R13       0.034367
     39 H183         2.1260     2.7640     0.5020 hc         1 R13       0.034367
     40 H191         2.9130     0.8150     3.7490 hc         1 R13       0.034367
     41 H192         2.0110     2.3210     3.9640 hc         1 R13       0.034367
     42 H193         1.1740     0.7660     4.0690 hc         1 R13       0.034367
     43 H201         0.1840    -2.1300     0.2180 hc         1 R13       0.035700
     44 H202        -0.5700    -1.3200     1.5970 hc         1 R13       0.035700
     45 H203        -1.4830    -1.5510     0.1010 hc         1 R13       0.035700
     46 H211         0.1150    -0.3470    -2.1180 hc         1 R13       0.035700
     47 H212        -1.5300    -0.1280    -1.5040 hc         1 R13       0.035700
     48 H213        -0.4560     1.2680    -1.6740 hc         1 R13       0.035700
     49 H221        -5.3550     1.6570     0.5350 hc         1 R13       0.036700
     50 H222        -4.5060     0.9760     1.9290 hc         1 R13       0.036700
     51 H223        -5.6680     2.2900     2.1570 hc         1 R13       0.036700
     52 H231        -7.7920     4.1540    -0.1660 hc         1 R13       0.039700
     53 H232        -8.4720     5.1240     1.1480 hc         1 R13       0.039700
     54 H233        -8.9860     5.4100    -0.5200 hc         1 R13       0.039700
@<TRIPOS>BOND
     1     1     2 1
     2     1    10 1
     3     1    20 1
     4     1    21 1
     5     2     3 1
     6     2    26 1
     7     2    27 1
     8     3     4 1
     9     3    28 1
    10     3    29 1
    11     4     5 1
    12     4    18 1
    13     4    19 1
    14     5     6 ar
    15     5    10 ar
    16     6     7 ar
    17     6    30 1
    18     7     8 ar
    19     7    31 1
    20     8     9 ar
    21     8    11 1
    22     9    10 ar
    23     9    32 1
    24    11    12 2
    25    11    22 1
    26    12    13 1
    27    12    33 1
    28    13    14 2
    29    13    34 1
    30    14    15 1
    31    14    35 1
    32    15    16 2
    33    15    23 1
    34    16    17 1
    35    16    36 1
    36    17    24 1
    37    17    25 1
    38    18    37 1
    39    18    38 1
    40    18    39 1
    41    19    40 1
    42    19    41 1
    43    19    42 1
    44    20    43 1
    45    20    44 1
    46    20    45 1
    47    21    46 1
    48    21    47 1
    49    21    48 1
    50    22    49 1
    51    22    50 1
    52    22    51 1
    53    23    52 1
    54    23    53 1
    55    23    54 1
@<TRIPOS>SUBSTRUCTURE
     1 R13         1 TEMP              0 ****  ****    0 ROOT
