@<TRIPOS>MOLECULE
R13
   54    54     1     0     0
SMALL
bcc


@<TRIPOS>ATOM
      1 C1          0.0550   -0.4460    0.3720 c3        1 R13     -0.001700
      2 C2          1.5650   -0.3330    0.5820 c3        1 R13     -0.067400
      3 C3          1.9150    0.3480    1.8810 c3        1 R13     -0.067400
      4 C4          1.3950    1.7850    1.9400 c3        1 R13      0.000300
      5 C5         -0.0170    1.8770    1.4300 ca        1 R13     -0.084300
      6 C6         -0.7350    3.0590    1.6710 ca        1 R13     -0.127000
      7 C7         -2.0500    3.2080    1.2550 ca        1 R13     -0.127000
      8 C8         -2.7030    2.1650    0.5750 ca        1 R13     -0.002800
      9 C9         -1.9800    0.9940    0.3180 ca        1 R13     -0.145000
     10 C10        -0.6450    0.8420    0.7200 ca        1 R13     -0.064300
     11 C11        -4.0890    2.3150    0.1530 ce        1 R13     -0.147500
     12 C12        -4.7750    3.4200    0.4000 c1        1 R13     -0.011900
     13 C13        -5.4390    4.4620    0.6280 c1        1 R13     -0.131900
     14 C14        -6.0980    5.5740    0.8880 ce        1 R13     -0.011100
     15 C15        -7.4750    5.8240    0.5120 ce        1 R13     -0.157200
     16 C16        -8.1070    6.9700    0.8360 cf        1 R13     -0.127200
     17 C17        -7.5710    8.1330    1.6430 c         1 R13      0.889800
     18 C18         2.2930    2.6950    1.1050 c3        1 R13     -0.083100
     19 C19         1.4650    2.2370    3.3980 c3        1 R13     -0.083100
     20 C20        -0.5050   -1.5720    1.2370 c3        1 R13     -0.083100
     21 C21        -0.1760   -0.7980   -1.0970 c3        1 R13     -0.083100
     22 C22        -4.7340    1.1890   -0.5710 c3        1 R13     -0.030900
     23 C23        -8.1670    4.7540   -0.2540 c3        1 R13     -0.048900
     24 O1         -8.4330    8.8540    2.2200 o         1 R13     -0.825300
     25 O2         -6.3240    8.3440    1.7000 o         1 R13     -0.825300
     26 H21         2.0140   -1.3610    0.5660 hc        1 R13      0.037200
     27 H22         2.0110    0.2400   -0.2730 hc        1 R13      0.037200
     28 H31         3.0290    0.3560    2.0120 hc        1 R13      0.037200
     29 H32         1.4820   -0.2330    2.7380 hc        1 R13      0.037200
     30 H6         -0.2470    3.8910    2.2020 ha        1 R13      0.126000
     31 H7         -2.5920    4.1460    1.4580 ha        1 R13      0.151000
     32 H9         -2.4710    0.1650   -0.2130 ha        1 R13      0.126000
     33 H12        -4.3620    7.8370    2.6790 ha        1 R13      0.000000
     34 H13        -3.7820    7.5260    2.8440 ha        1 R13      0.000000
     35 H14        -5.5880    6.4110    1.4270 ha        1 R13      0.211000
     36 H16        -9.1570    7.1150    0.5230 ha        1 R13      0.109000
     37 H181        2.3100    2.3610    0.0410 hc        1 R13      0.033700
     38 H182        3.3360    2.6770    1.5050 hc        1 R13      0.033700
     39 H183        1.9130    3.7440    1.1410 hc        1 R13      0.033700
     40 H191        1.3160    3.3400    3.4810 hc        1 R13      0.033700
     41 H192        2.4660    1.9870    3.8250 hc        1 R13      0.033700
     42 H193        0.6780    1.7250    4.0000 hc        1 R13      0.033700
     43 H201       -1.6090   -1.6550    1.0910 hc        1 R13      0.033367
     44 H202       -0.0310   -2.5430    0.9560 hc        1 R13      0.033367
     45 H203       -0.3060   -1.3730    2.3170 hc        1 R13      0.033367
     46 H211        0.5050   -1.6310   -1.3980 hc        1 R13      0.033367
     47 H212       -1.2270   -1.1300   -1.2680 hc        1 R13      0.033367
     48 H213        0.0290    0.0870   -1.7440 hc        1 R13      0.033367
     49 H221       -5.7900    1.4380   -0.8380 hc        1 R13      0.030033
     50 H222       -4.7400    0.2690    0.0650 hc        1 R13      0.030033
     51 H223       -4.1770    0.9630   -1.5150 hc        1 R13      0.030033
     52 H231       -8.1890    3.8060    0.3390 hc        1 R13      0.026700
     53 H232       -9.2190    5.0420   -0.4990 hc        1 R13      0.026700
     54 H233       -7.6250    4.5500   -1.2110 hc        1 R13      0.026700
@<TRIPOS>BOND
     1    1    2 1   
     2    1   10 1   
     3    1   20 1   
     4    1   21 1   
     5    2    3 1   
     6    2   26 1   
     7    2   27 1   
     8    3    4 1   
     9    3   28 1   
    10    3   29 1   
    11    4    5 1   
    12    4   18 1   
    13    4   19 1   
    14    5    6 ar  
    15    5   10 ar  
    16    6    7 ar  
    17    6   30 1   
    18    7    8 ar  
    19    7   31 1   
    20    8    9 ar  
    21    8   11 1   
    22    9   10 ar  
    23    9   32 1   
    24   11   12 2   
    25   11   22 1   
    26   12   13 2   
    27   13   14 2   
    28   14   15 1   
    29   14   35 1   
    30   15   16 2   
    31   15   23 1   
    32   16   17 1   
    33   16   36 1   
    34   17   24 1   
    35   17   25 1   
    36   18   37 1   
    37   18   38 1   
    38   18   39 1   
    39   19   40 1   
    40   19   41 1   
    41   19   42 1   
    42   20   43 1   
    43   20   44 1   
    44   20   45 1   
    45   21   46 1   
    46   21   47 1   
    47   21   48 1   
    48   22   49 1   
    49   22   50 1   
    50   22   51 1   
    51   23   52 1   
    52   23   53 1   
    53   23   54 1   
    54   33   34 1   
@<TRIPOS>SUBSTRUCTURE
     1 R13         1 TEMP              0 ****  ****    0 ROOT
