@<TRIPOS>MOLECULE
R14
  105   107     1     0     0
SMALL
bcc


@<TRIPOS>ATOM
      1 CAA        -2.3750   -0.8010    3.7190 c3        1 R14     -0.368000
      2 CAB         0.2330   -2.7850    4.9190 c3        1 R14     -0.254000
      3 CAC         7.2640   23.9560   -9.9870 c3        1 R14     -0.254000
      4 CAD        10.0470   23.0510   -6.8000 c3        1 R14     -0.254000
      5 OAE         1.1730    2.4320    4.5410 o         1 R14     -0.352000
      6 OAF         6.2830   22.7740   -3.7500 o         1 R14     -0.330000
      7 CAG         6.0770    2.7100    5.0240 c1        1 R14      0.224000
      8 CAH         4.0140   24.7260   -2.2760 c1        1 R14      0.231000
      9 CAI         5.2630    3.6770    4.6570 c2        1 R14     -0.469000
     10 CAJ         3.8760   23.4350   -2.0580 c2        1 R14     -0.451000
     11 CAK         4.2520    5.9980    6.2810 c2        1 R14     -0.192000
     12 CAL         1.5560   22.1470   -0.7050 c2        1 R14     -0.192000
     13 CAM         1.3630   10.9720    5.6860 c2        1 R14     -0.481000
     14 CAN         0.0700   17.3460    2.0340 c2        1 R14     -0.189000
     15 CAO         1.1450   10.2790    6.7870 c1        1 R14      0.257000
     16 CAP        -0.2950   16.5990    3.0900 c2        1 R14     -0.048000
     17 CAQ         2.9940    4.6560    4.6410 c2        1 R14     -0.103000
     18 CAR         2.7570   21.3220   -2.6870 c2        1 R14     -0.121000
     19 CAS         1.5780   11.3130    3.2370 c2        1 R14     -0.135000
     20 CAT         1.8730   15.7870    1.4350 c2        1 R14     -0.149000
     21 CAU        -0.2990   14.4120    4.2620 c1        1 R14     -0.069000
     22 CAV         2.6590    8.3820    5.2320 c2        1 R14     -0.108000
     23 CAW         1.4070   19.2890    0.2580 c2        1 R14     -0.098000
     24 CAX        -1.4060   -1.4430    2.8620 c1        1 R14      0.124000
     25 CAY         0.6790   -2.4290    3.5190 c3        1 R14     -0.103000
     26 CAZ         6.9510   24.3850   -8.5690 c3        1 R14     -0.126000
     27 CBA         9.1130   24.0790   -7.4020 c3        1 R14     -0.126000
     28 CBB         1.8720    0.5180    3.2660 c3        1 R14     -0.214000
     29 CBC         5.7740   22.7670   -6.0950 c3        1 R14     -0.218000
     30 CBD         0.4620    0.0650    3.6280 c3        1 R14     -0.167000
     31 CBE         6.9980   23.6700   -6.2020 c3        1 R14     -0.134000
     32 NBF         2.3310    7.2110    3.3170 n2        1 R14     -0.075000
     33 NBG         2.6820   18.6450   -1.5040 n2        1 R14     -0.079000
     34 NBH         1.8990    8.3780    3.1020 n2        1 R14      0.031000
     35 NBI         2.4560   17.6050   -0.8270 n2        1 R14      0.033000
     36 NBJ         1.7390   13.5880    2.4140 n2        1 R14     -0.173000
     37 NBK         3.3850    2.3790    3.8460 n         1 R14     -0.311000
     38 CBM         2.1120    1.8720    3.9430 c2        1 R14      0.309000
     39 CBN         5.3930   22.6770   -4.6140 c2        1 R14      0.307000
     40 CBO         3.8220    3.6090    4.4000 c2        1 R14      0.078000
     41 CBP         3.5420   22.3820   -3.0120 c2        1 R14      0.089000
     42 CBQ         3.4160    5.9190    5.2310 c2        1 R14      0.002000
     43 CBR         2.1110   21.1340   -1.3950 c2        1 R14      0.006000
     44 CBS         1.6550   10.5130    4.3340 c2        1 R14      0.147000
     45 CBT         1.2430   16.9840    1.2400 c2        1 R14      0.113000
     46 CBU         2.8370    7.1140    4.6470 c2        1 R14     -0.128000
     47 CBV         2.0560   19.7740   -0.8940 c2        1 R14     -0.132000
     48 CBW        -0.0110   13.0630    4.0340 c2        1 R14     -0.293000
     49 CBX         0.4850   15.4190    3.5240 c3        1 R14     -0.162000
     50 CBY         1.0920   12.6910    3.2610 c2        1 R14      0.113000
     51 CBZ         1.3870   14.8620    2.4520 c2        1 R14      0.066000
     52 NCA         0.0240   -1.1880    2.9470 n4        1 R14     -0.059000
     53 NCB         7.6930   23.5980   -7.5270 n4        1 R14     -0.011000
     54 NCC         2.0610    9.1500    4.2160 na        1 R14     -0.144000
     55 NCD         1.6860   17.9100    0.2600 na        1 R14     -0.132000
     56 HAA        -3.1440   -0.3060    3.0510 hc        1 R14      0.174333
     57 HAAA       -2.0260   -0.0610    4.4810 hc        1 R14      0.174333
     58 HAAB       -2.9410   -1.6310    4.2450 hc        1 R14      0.174333
     59 HAB        -0.8740   -2.9330    4.9760 hc        1 R14      0.117667
     60 HABA        0.7270   -3.7520    5.2000 hc        1 R14      0.117667
     61 HABB        0.5350   -2.0150    5.6690 hc        1 R14      0.117667
     62 HAC         7.0190   22.8790  -10.1590 hc        1 R14      0.118500
     63 HACA        6.6320   24.5710  -10.6800 hc        1 R14      0.118500
     64 HACB        8.3350   24.1300  -10.2530 hc        1 R14      0.118500
     65 HAD        10.0750   22.1120   -7.4050 hc        1 R14      0.118500
     66 HADA       11.0790   23.4890   -6.7900 hc        1 R14      0.118500
     67 HADB        9.7720   22.7960   -5.7470 hc        1 R14      0.118500
     68 HAG         4.6720    5.1030    6.7600 ha        1 R14      0.129000
     69 HAH         1.5580   23.1790   -1.0790 ha        1 R14      0.129000
     70 HAI         5.6940    4.7000    4.5370 ha        1 R14      0.222000
     71 HAJ         4.0250   23.0710   -1.0130 ha        1 R14      0.218000
     72 HAK         4.5430    6.9570    6.7280 ha        1 R14      0.129000
     73 HAL         1.0540   21.9960    0.2590 ha        1 R14      0.129000
     74 HAM         1.2990   12.0830    5.8000 ha        1 R14      0.226000
     75 HAN        -0.5270   18.2210    1.7320 ha        1 R14      0.153000
     76 HAO        -0.6500   12.2960    4.4980 ha        1 R14      0.169000
     77 HAP        -1.1780   16.8380    3.7070 ha        1 R14      0.176000
     78 HAQ         1.9170    4.5960    4.3920 ha        1 R14      0.174000
     79 HAR         2.5650   20.5190   -3.4230 ha        1 R14      0.154000
     80 HAS         1.8800   10.9430    2.2370 ha        1 R14      0.188000
     81 HAT         2.7310   15.4600    0.8200 ha        1 R14      0.185000
     82 HAU         1.1780   15.7890    4.3680 hc        1 R14      0.206000
     83 HAV         2.9020    8.7660    6.2240 h4        1 R14      0.210000
     84 HAW         0.8200   19.7840    1.0290 h4        1 R14      0.202000
     85 HAX        -1.6380    0.1060    1.0750 ha        1 R14      0.006000
     86 HAXA       -1.8770   -0.3840    0.6690 ha        1 R14      0.006000
     87 HAY         0.4350   -3.2780    2.8140 hx        1 R14      0.148000
     88 HAYA        1.7910   -2.2430    3.5020 hx        1 R14      0.148000
     89 HAZ         7.2050   25.4740   -8.4230 hx        1 R14      0.142500
     90 HAZA        5.8470   24.2500   -8.3740 hx        1 R14      0.142500
     91 HBA         9.1030   25.0160   -6.7740 hx        1 R14      0.142500
     92 HBAA        9.4700   24.3480   -8.4380 hx        1 R14      0.142500
     93 HBB         1.9850    0.6430    2.1570 hc        1 R14      0.123000
     94 HBBA        2.6350   -0.2240    3.6200 hc        1 R14      0.123000
     95 HBC         5.9980   21.7230   -6.4430 hc        1 R14      0.122500
     96 HBCA        4.9300   23.1700   -6.7130 hc        1 R14      0.122500
     97 HBD        -0.2620    0.8870    3.3430 hx        1 R14      0.158000
     98 HBDA        0.3920   -0.0790    4.7450 hx        1 R14      0.158000
     99 HBE         6.7010   24.7420   -6.0180 hx        1 R14      0.165500
    100 HBEA        7.7410   23.3710   -5.3990 hx        1 R14      0.165500
    101 HNBK        4.0640    1.8750    3.3190 hn        1 R14      0.243000
    102 HNBL        3.4490   22.2140   -5.0630 hn        1 R14      0.236000
    103 HCA1        0.3240   -1.1350    1.9560 hn        1 R14      0.271000
    104 HCB1        7.7190   22.6140   -7.8250 hn        1 R14      0.238000
    105 NBL         4.0490   22.5290   -4.3330 n         1 R14     -0.318000
@<TRIPOS>BOND
     1    1   24 1   
     2    1   56 1   
     3    1   57 1   
     4    1   58 1   
     5    2   25 1   
     6    2   59 1   
     7    2   60 1   
     8    2   61 1   
     9    3   26 1   
    10    3   62 1   
    11    3   63 1   
    12    3   64 1   
    13    4   27 1   
    14    4   65 1   
    15    4   66 1   
    16    4   67 1   
    17    5   38 1   
    18    6   39 1   
    19    7    9 1   
    20    8   10 1   
    21    9   40 1   
    22    9   70 1   
    23   10   41 1   
    24   10   71 1   
    25   11   42 1   
    26   11   68 1   
    27   11   72 1   
    28   12   43 1   
    29   12   69 1   
    30   12   73 1   
    31   13   15 1   
    32   13   44 1   
    33   13   74 1   
    34   14   16 1   
    35   14   45 1   
    36   14   75 1   
    37   16   49 1   
    38   16   77 1   
    39   17   40 1   
    40   17   42 1   
    41   17   78 1   
    42   18   41 1   
    43   18   43 1   
    44   18   79 1   
    45   19   44 1   
    46   19   50 1   
    47   19   80 1   
    48   20   45 1   
    49   20   51 1   
    50   20   81 1   
    51   21   48 1   
    52   21   49 1   
    53   22   46 1   
    54   22   54 1   
    55   22   83 1   
    56   23   47 1   
    57   23   55 1   
    58   23   84 1   
    59   24   52 1   
    60   25   52 1   
    61   25   87 1   
    62   25   88 1   
    63   26   53 1   
    64   26   89 1   
    65   26   90 1   
    66   27   53 1   
    67   27   91 1   
    68   27   92 1   
    69   28   30 1   
    70   28   38 1   
    71   28   93 1   
    72   28   94 1   
    73   29   31 1   
    74   29   39 1   
    75   29   95 1   
    76   29   96 1   
    77   30   52 1   
    78   30   97 1   
    79   30   98 1   
    80   31   53 1   
    81   31   99 1   
    82   31  100 1   
    83   32   34 1   
    84   32   46 1   
    85   33   35 1   
    86   33   47 1   
    87   34   54 1   
    88   35   55 1   
    89   36   50 1   
    90   36   51 1   
    91   37   38 1   
    92   37   40 1   
    93   37  101 1   
    94   39  105 1   
    95   41  105 1   
    96   42   46 1   
    97   43   47 1   
    98   44   54 1   
    99   45   55 1   
   100   48   50 1   
   101   48   76 1   
   102   49   51 1   
   103   49   82 1   
   104   52  103 1   
   105   53  104 1   
   106   85   86 1   
   107  102  105 1   
@<TRIPOS>SUBSTRUCTURE
     1 R14         1 TEMP              0 ****  ****    0 ROOT
