@<TRIPOS>MOLECULE
molecule
  103   109     1     0     0
SMALL
bcc


@<TRIPOS>ATOM
      1 CAA          0.0000     0.0000     0.0000 c3         1 R14      -0.094100
      2 CAB          3.6060    -1.8230     0.9910 c3         1 R14      -0.094100
      3 CAC          7.7470    22.7890    -9.8470 c3         1 R14      -0.094100
      4 CAD          5.9940    19.1210    -8.9370 c3         1 R14      -0.094100
      5 OAE          1.4790     3.4760     3.5130 o          1 R14      -0.585100
      6 OAF          5.7210    21.2120    -4.1880 o          1 R14      -0.585100
      7 CAG          0.8730     5.0800     8.0320 ca         1 R14      -0.114000
      8 CAH          3.6210    23.7020    -0.6250 ca         1 R14      -0.114000
      9 CAI          1.1820     3.8850     7.4110 ca         1 R14      -0.168000
     10 CAJ          3.9200    23.8920    -1.9610 ca         1 R14      -0.168000
     11 CAK          1.0940     6.2780     7.3830 ca         1 R14      -0.152500
     12 CAL          3.4970    22.4240    -0.1150 ca         1 R14      -0.152500
     13 CAM          0.2710    11.5140     6.8270 ca         1 R14      -0.122000
     14 CAN          0.5540    18.1260     4.0620 ca         1 R14      -0.122000
     15 CAO          0.1020    12.8450     7.0310 ca         1 R14      -0.083500
     16 CAP          0.2940    17.3520     5.1460 ca         1 R14      -0.083500
     17 CAQ          1.9540     5.0830     5.4750 ca         1 R14      -0.105500
     18 CAR          3.9750    21.5120    -2.2950 ca         1 R14      -0.105500
     19 CAS          0.9260    11.8300     4.5260 ca         1 R14      -0.131800
     20 CAT          1.1230    16.2220     2.6930 ca         1 R14      -0.131800
     21 CAU          0.1800    15.1230     6.1450 ca         1 R14      -0.049000
     22 CAV          1.6970     8.8120     5.9330 cc         1 R14      -0.253100
     23 CAW          2.4350    19.8310     1.4490 cd         1 R14      -0.253100
     24 CAX          1.5300     0.0000     0.0000 c3         1 R14       0.157800
     25 CAY          3.4400    -0.3700     1.4400 c3         1 R14       0.157800
     26 CAZ          7.6370    22.4410    -8.3610 c3         1 R14       0.157800
     27 CBA          7.1540    20.1090    -8.7980 c3         1 R14       0.157800
     28 CBB          2.0780     1.1930     3.5220 c3         1 R14      -0.156900
     29 CBC          5.4250    22.2630    -6.2800 c3         1 R14      -0.156900
     30 CBD          1.7900     1.3030     2.0240 c3         1 R14       0.173300
     31 CBE          6.3570    21.1490    -6.7620 c3         1 R14       0.173300
     32 NBF          2.2900     7.7080     4.1310 nd         1 R14      -0.328000
     33 NBG          3.6390    18.7280    -0.0180 nc         1 R14      -0.328000
     34 NBH          2.3860     8.9570     3.8330 nc         1 R14      -0.200800
     35 NBI          2.9690    17.8430     0.6330 nd         1 R14      -0.200800
     36 NBJ          1.0110    14.0460     3.6550 nb         1 R14      -0.634000
     37 NBK          2.0350     2.6710     5.5050 ns         1 R14      -0.480600
     38 CBM          1.8430     2.5290     4.1780 c          1 R14       0.654100
     39 CBN          5.1930    22.1180    -4.7980 c          1 R14       0.654100
     40 CBO          1.7230     3.8840     6.1310 ca         1 R14       0.061600
     41 CBP          4.0980    22.7980    -2.7980 ca         1 R14       0.061600
     42 CBQ          1.6310     6.2850     6.0960 ca         1 R14      -0.061000
     43 CBR          3.6690    21.3210    -0.9500 ca         1 R14      -0.061000
     44 CBS          0.6810    11.0100     5.5880 ca         1 R14       0.117800
     45 CBT          0.9670    17.5680     2.8450 ca         1 R14       0.117800
     46 CBU          1.8690     7.5730     5.3970 cd         1 R14       0.285800
     47 CBV          3.3470    19.9520     0.4460 cc         1 R14       0.285800
     48 CBW          0.3430    13.7470     5.9740 ca         1 R14      -0.162800
     49 CBX          0.4370    15.9520     5.0500 ca         1 R14      -0.162800
     50 CBY          0.7730    13.2240     4.6730 ca         1 R14       0.437100
     51 CBZ          0.8670    15.3620     3.7800 ca         1 R14       0.437100
     52 NCA          2.0200     0.0000     1.3850 n3         1 R14      -0.738600
     53 NCB          6.6680    21.3510    -8.1840 n3         1 R14      -0.738600
     54 NCC          2.0200     9.7080     4.9600 na         1 R14       0.063300
     55 NCD          2.1810    18.5010     1.5890 na         1 R14       0.063300
     56 HAA         -0.3610     1.0200     0.0420 hc         1 R14       0.039450
     57 HAAA        -0.3610    -0.4740    -0.9050 hc         1 R14       0.039450
     58 HAAB        -0.3610    -0.5470     0.8630 hc         1 R14       0.039450
     59 HAB          3.6340    -1.8660    -0.0910 hc         1 R14       0.039450
     60 HABA         2.7710    -2.4110     1.3530 hc         1 R14       0.039450
     61 HABB         4.5300    -2.2220     1.3920 hc         1 R14       0.039450
     62 HAC          8.1060    23.8060    -9.9530 hc         1 R14       0.039450
     63 HACA         6.7740    22.6990   -10.3130 hc         1 R14       0.039450
     64 HACB         8.4410    22.1100   -10.3260 hc         1 R14       0.039450
     65 HAD          6.2000    18.4350    -9.7490 hc         1 R14       0.039450
     66 HADA         5.8810    18.5650    -8.0140 hc         1 R14       0.039450
     67 HADB         5.0800    19.6640    -9.1450 hc         1 R14       0.039450
     68 HAG          0.4530     5.0770     9.0300 ha         1 R14       0.129000
     69 HAH          3.4850    24.5580     0.0250 ha         1 R14       0.129000
     70 HAI          1.0040     2.9480     7.9240 ha         1 R14       0.128500
     71 HAJ          4.0160    24.8960    -2.3560 ha         1 R14       0.128500
     72 HAK          0.8470     7.2130     7.8710 ha         1 R14       0.127000
     73 HAL          3.2610    22.2790     0.9320 ha         1 R14       0.127000
     74 HAM          0.0870    10.8260     7.6440 ha         1 R14       0.154000
     75 HAN          0.4420    19.2010     4.1400 ha         1 R14       0.154000
     76 HAO         -0.2170    13.2120     7.9990 ha         1 R14       0.157500
     77 HAP         -0.0230    17.8060     6.0770 ha         1 R14       0.157500
     78 HAQ          2.3730     5.0830     4.4760 ha         1 R14       0.179000
     79 HAR          4.1120    20.6580    -2.9470 ha         1 R14       0.179000
     80 HAS          1.2430    11.4140     3.5770 ha         1 R14       0.202000
     81 HAT          1.4440    15.8160     1.7410 ha         1 R14       0.202000
     82 HAU         -0.3790    15.5020     6.9920 ha         1 R14       0.152000
     83 HAV          1.3670     9.0410     6.9390 h4         1 R14       0.173000
     84 HAW          1.9990    20.6370     2.0260 h4         1 R14       0.173000
     85 HAX          1.8910    -0.8850    -0.5110 h1         1 R14       0.033825
     86 HAXA         1.8910     0.8840    -0.5110 h1         1 R14       0.033825
     87 HAY          3.8010    -0.2630     2.4560 h1         1 R14       0.033825
     88 HAYA         4.0080     0.2780     0.7840 h1         1 R14       0.033825
     89 HAZ          7.3050    23.3120    -7.8100 h1         1 R14       0.033825
     90 HAZA         8.6050    22.1270    -7.9910 h1         1 R14       0.033825
     91 HBA          7.5630    20.3260    -9.7770 h1         1 R14       0.033825
     92 HBAA         7.9250    19.6750    -8.1730 h1         1 R14       0.033825
     93 HBB          3.1090     0.8940     3.6710 hc         1 R14       0.068200
     94 HBBA         1.4210     0.4530     3.9630 hc         1 R14       0.068200
     95 HBC          4.4780    22.1940    -6.8020 hc         1 R14       0.068200
     96 HBCA         5.8790    23.2260    -6.4810 hc         1 R14       0.068200
     97 HBD          2.4470     2.0420     1.5830 h1         1 R14       0.054200
     98 HBDA         0.7590     1.6010     1.8760 h1         1 R14       0.054200
     99 HBE          7.2740    21.1710    -6.1860 h1         1 R14       0.054200
    100 HBEA         5.8710    20.1900    -6.6320 h1         1 R14       0.054200
    101 HNBK         2.4610     1.9330     6.0300 hn         1 R14       0.324000
    102 HNBL         4.1110    23.8360    -4.6080 hn         1 R14       0.324000
    103 NBL          4.3990    22.9930    -4.1510 ns         1 R14      -0.480600
@<TRIPOS>BOND
     1    24     1 1
     2     1    56 1
     3     1    57 1
     4     1    58 1
     5    25     2 1
     6     2    59 1
     7     2    60 1
     8     2    61 1
     9     3    26 1
    10     3    62 1
    11     3    63 1
    12     3    64 1
    13     4    27 1
    14     4    65 1
    15     4    66 1
    16     4    67 1
    17     5    38 2
    18    39     6 2
    19    11     7 ar
    20     7     9 ar
    21     7    68 1
    22    10     8 ar
    23     8    12 ar
    24     8    69 1
    25     9    40 ar
    26     9    70 1
    27    41    10 ar
    28    10    71 1
    29    11    42 ar
    30    11    72 1
    31    43    12 ar
    32    12    73 1
    33    15    13 ar
    34    13    44 ar
    35    13    74 1
    36    14    45 ar
    37    14    16 ar
    38    14    75 1
    39    48    15 ar
    40    15    76 1
    41    16    49 ar
    42    16    77 1
    43    42    17 ar
    44    17    40 ar
    45    17    78 1
    46    41    18 ar
    47    18    43 ar
    48    18    79 1
    49    50    19 ar
    50    19    44 ar
    51    19    80 1
    52    45    20 ar
    53    20    51 ar
    54    20    81 1
    55    49    21 ar
    56    21    48 ar
    57    21    82 1
    58    54    22 1
    59    22    46 2
    60    22    83 1
    61    47    23 2
    62    55    23 1
    63    23    84 1
    64    52    24 1
    65    24    85 1
    66    24    86 1
    67    25    52 1
    68    25    87 1
    69    25    88 1
    70    26    53 1
    71    26    89 1
    72    26    90 1
    73    53    27 1
    74    27    91 1
    75    27    92 1
    76    38    28 1
    77    28    30 1
    78    28    93 1
    79    28    94 1
    80    31    29 1
    81    29    39 1
    82    29    95 1
    83    29    96 1
    84    30    52 1
    85    30    97 1
    86    30    98 1
    87    53    31 1
    88    31    99 1
    89    31   100 1
    90    34    32 2
    91    46    32 1
    92    33    35 2
    93    33    47 1
    94    54    34 1
    95    35    55 1
    96    51    36 ar
    97    36    50 ar
    98    40    37 1
    99    37    38 1
   100    37   101 1
   101    39   103 1
   102   103    41 1
   103   103   102 1
   104    46    42 1
   105    43    47 1
   106    44    54 1
   107    55    45 1
   108    48    50 ar
   109    49    51 ar
@<TRIPOS>SUBSTRUCTURE
     1 R14         1 TEMP              0 ****  ****    0 ROOT
