@<TRIPOS>MOLECULE
molecule
   61    62     1     0     0
SMALL
bcc


@<TRIPOS>ATOM
      1 S1           0.0000     0.0000     0.0000 sy         1 R15       1.280900
      2 S2          11.0390     6.5330     4.8680 sy         1 R15       1.280900
      3 N3           9.9190     6.3890     3.5890 ns         1 R15      -0.648300
      4 N5           1.6760     0.0000     0.0000 ns         1 R15      -0.648300
      5 C7           2.3710     0.0000     1.2050 c          1 R15       0.794600
      6 C8           8.5510     6.5190     3.8280 c          1 R15       0.794600
      7 C9          -0.5720    -1.6170     0.4410 ca         1 R15      -0.270500
      8 C10         11.1270     8.1880     5.4850 ca         1 R15      -0.270500
      9 O11         -0.4300     0.9600     1.0100 o          1 R15      -0.574800
     10 O12         10.5940     5.6840     5.9560 o          1 R15      -0.574800
     11 O13         12.3690     6.2560     4.3130 o          1 R15      -0.574800
     12 O14         -0.4930     0.3080    -1.3630 o          1 R15      -0.574800
     13 C15         -1.0390    -1.8590     1.7290 ca         1 R15      -0.001500
     14 C17         10.5430     8.5220     6.7100 ca         1 R15      -0.001500
     15 O19          1.8190    -0.0300     2.3180 o          1 R15      -0.601100
     16 O20          8.0780     6.7380     4.9760 o          1 R15      -0.601100
     17 N21          3.7340     0.0120     1.0130 ns         1 R15      -0.594900
     18 N22          7.7770     6.3850     2.6780 ns         1 R15      -0.594900
     19 C23         -1.4860    -3.1240     2.0720 ca         1 R15       0.004400
     20 C24         10.6380     9.8240     7.1710 ca         1 R15       0.004400
     21 Cl25        -2.0640    -3.4030     3.6840 cl         1 R15      -0.091900
     22 Cl26         9.9260    10.2570     8.7000 cl         1 R15      -0.091900
     23 C27         -0.5660    -2.6440    -0.4870 ca         1 R15      -0.035500
     24 C29         11.8160     9.1430     4.7450 ca         1 R15      -0.035500
     25 C31         -1.0270    -3.9120    -0.1510 ca         1 R15      -0.142000
     26 C33         11.8940    10.4420     5.2080 ca         1 R15      -0.142000
     27 C41         -1.4860    -4.1490     1.1410 ca         1 R15      -0.065000
     28 C43         11.3080    10.7800     6.4230 ca         1 R15      -0.065000
     29 C35          6.3230     6.4790     2.7160 c3         1 R15       0.120000
     30 C38          4.6390     0.4110     2.0850 c3         1 R15       0.120000
     31 C45          5.7420     5.2670     3.4540 c3         1 R15      -0.107400
     32 C48          4.4610     1.8910     2.4420 c3         1 R15      -0.107400
     33 C51          4.3900     4.8270     2.8900 c3         1 R15      -0.078900
     34 C54          5.1000     2.8350     1.4180 c3         1 R15      -0.078900
     35 C57          4.4810     4.2350     1.4810 c3         1 R15      -0.079400
     36 H5           2.1770    -0.0220    -0.8660 hn         1 R15       0.339500
     37 H3          10.2470     6.2090     2.6610 hn         1 R15       0.339500
     38 H21          4.1100    -0.2600     0.1260 hn         1 R15       0.315000
     39 H22          8.2320     6.2220     1.8020 hn         1 R15       0.315000
     40 H15         -1.1310    -1.0420     2.4340 ha         1 R15       0.181000
     41 H27         -0.2070    -2.4540    -1.4920 ha         1 R15       0.142500
     42 H17         10.1720     7.7420     7.3640 ha         1 R15       0.181000
     43 H29         12.2710     8.8740     3.7990 ha         1 R15       0.142500
     44 H381         4.4370    -0.1920     2.9630 h1         1 R15       0.055450
     45 H382         5.6620     0.2430     1.7680 h1         1 R15       0.055450
     46 H351         5.9370     6.5030     1.7040 h1         1 R15       0.055450
     47 H352         6.0340     7.3870     3.2320 h1         1 R15       0.055450
     48 H41         -1.8430    -5.1330     1.4180 ha         1 R15       0.149000
     49 H43         11.3740    11.7980     6.7870 ha         1 R15       0.149000
     50 H31         -1.0210    -4.7090    -0.8850 ha         1 R15       0.145000
     51 H33         12.4220    11.1920     4.6320 ha         1 R15       0.145000
     52 H451         6.4400     4.4420     3.3750 hc         1 R15       0.060700
     53 H452         5.6190     5.5210     4.5000 hc         1 R15       0.060700
     54 H481         3.4010     2.1090     2.5020 hc         1 R15       0.060700
     55 H482         4.9100     2.0720     3.4100 hc         1 R15       0.060700
     56 H511         3.7290     5.6850     2.8630 hc         1 R15       0.041950
     57 H512         3.9640     4.0820     3.5510 hc         1 R15       0.041950
     58 H541         4.9550     2.4290     0.4240 hc         1 R15       0.041950
     59 H542         6.1620     2.9080     1.6190 hc         1 R15       0.041950
     60 H571         5.0760     4.9010     0.8680 hc         1 R15       0.038700
     61 H572         3.4820     4.1870     1.0650 hc         1 R15       0.038700
@<TRIPOS>BOND
     1     1     4 1
     2     1     7 1
     3     1     9 2
     4     1    12 2
     5     2     3 1
     6     2     8 1
     7     2    10 2
     8     2    11 2
     9     3     6 1
    10     4     5 1
    11     5    15 2
    12     5    17 1
    13     6    16 2
    14     6    18 1
    15     7    13 ar
    16     7    23 ar
    17     8    14 ar
    18     8    24 ar
    19    13    19 ar
    20    14    20 ar
    21    17    30 1
    22    18    29 1
    23    19    21 1
    24    19    27 ar
    25    20    22 1
    26    20    28 ar
    27    23    25 ar
    28    24    26 ar
    29    25    27 ar
    30    26    28 ar
    31    29    31 1
    32    30    32 1
    33    31    33 1
    34    32    34 1
    35    33    35 1
    36    34    35 1
    37     4    36 1
    38     3    37 1
    39    17    38 1
    40    18    39 1
    41    13    40 1
    42    23    41 1
    43    14    42 1
    44    24    43 1
    45    30    44 1
    46    30    45 1
    47    29    46 1
    48    29    47 1
    49    27    48 1
    50    28    49 1
    51    25    50 1
    52    26    51 1
    53    31    52 1
    54    31    53 1
    55    32    54 1
    56    32    55 1
    57    33    56 1
    58    33    57 1
    59    34    58 1
    60    34    59 1
    61    35    60 1
    62    35    61 1
@<TRIPOS>SUBSTRUCTURE
     1 R15         1 TEMP              0 ****  ****    0 ROOT
