@<TRIPOS>MOLECULE
R16
   50    49     1     0     0
SMALL
bcc


@<TRIPOS>ATOM
      1 C27         0.0070    0.0000   -0.0120 c3        1 R16     -0.092100
      2 C28         1.5140    0.0000    0.0160 c3        1 R16     -0.080400
      3 C29         2.0440   -0.0000    1.4340 c3        1 R16     -0.079400
      4 C30         3.5570   -0.0000    1.4560 c3        1 R16     -0.079400
      5 C31         4.0860   -0.0000    2.8750 c3        1 R16     -0.079400
      6 C32         5.5990   -0.0000    2.8970 c3        1 R16     -0.079400
      7 C33         6.1280    0.0000    4.3160 c3        1 R16     -0.079400
      8 C34         7.6410   -0.0010    4.3380 c3        1 R16     -0.079400
      9 C35         8.1700   -0.0000    5.7570 c3        1 R16     -0.079400
     10 C36         9.6840   -0.0010    5.7790 c3        1 R16     -0.079400
     11 C37        10.2120   -0.0010    7.1970 c3        1 R16     -0.079400
     12 C38        11.7260   -0.0010    7.2200 c3        1 R16     -0.079400
     13 C39        12.2540   -0.0010    8.6380 c3        1 R16     -0.079400
     14 C40        13.7680   -0.0010    8.6610 c3        1 R16     -0.079400
     15 C41        14.2980   -0.0010   10.0790 c3        1 R16     -0.080400
     16 C42        15.8040   -0.0010   10.1060 c3        1 R16     -0.092100
     17 H271       -0.3620    0.0000   -1.0650 hc        1 R16      0.032700
     18 H272       -0.3970   -0.9050    0.5040 hc        1 R16      0.032700
     19 H273       -0.3970    0.9050    0.5040 hc        1 R16      0.032700
     20 H281        1.9010   -0.9020   -0.5270 hc        1 R16      0.038700
     21 H282        1.9010    0.9020   -0.5270 hc        1 R16      0.038700
     22 H291        1.6590   -0.9020    1.9780 hc        1 R16      0.039700
     23 H292        1.6590    0.9020    1.9780 hc        1 R16      0.039700
     24 H301        3.9420   -0.9020    0.9120 hc        1 R16      0.039700
     25 H302        3.9420    0.9030    0.9120 hc        1 R16      0.039700
     26 H311        3.7020   -0.9030    3.4190 hc        1 R16      0.039700
     27 H312        3.7020    0.9020    3.4190 hc        1 R16      0.039700
     28 H321        5.9840   -0.9030    2.3530 hc        1 R16      0.039700
     29 H322        5.9840    0.9020    2.3530 hc        1 R16      0.039700
     30 H331        5.7440    0.9030    4.8600 hc        1 R16      0.039700
     31 H332        5.7440   -0.9020    4.8610 hc        1 R16      0.039700
     32 H341        8.0250   -0.9030    3.7940 hc        1 R16      0.039700
     33 H342        8.0260    0.9020    3.7930 hc        1 R16      0.039700
     34 H351        7.7860    0.9030    6.3010 hc        1 R16      0.039700
     35 H352        7.7850   -0.9020    6.3010 hc        1 R16      0.039700
     36 H361       10.0680    0.9010    5.2340 hc        1 R16      0.039700
     37 H362       10.0670   -0.9040    5.2350 hc        1 R16      0.039700
     38 H371        9.8280    0.9020    7.7420 hc        1 R16      0.039700
     39 H372        9.8280   -0.9030    7.7420 hc        1 R16      0.039700
     40 H381       12.1100    0.9010    6.6750 hc        1 R16      0.039700
     41 H382       12.1100   -0.9040    6.6760 hc        1 R16      0.039700
     42 H391       11.8700    0.9010    9.1830 hc        1 R16      0.039700
     43 H392       11.8700   -0.9040    9.1830 hc        1 R16      0.039700
     44 H401       14.1520    0.9020    8.1170 hc        1 R16      0.039700
     45 H402       14.1520   -0.9030    8.1160 hc        1 R16      0.039700
     46 H411       13.9110    0.9010   10.6220 hc        1 R16      0.038700
     47 H412       13.9110   -0.9030   10.6220 hc        1 R16      0.038700
     48 H421       16.1740   -0.0010   11.1600 hc        1 R16      0.032700
     49 H422       16.2080    0.9040    9.5910 hc        1 R16      0.032700
     50 H423       16.2080   -0.9060    9.5910 hc        1 R16      0.032700
@<TRIPOS>BOND
     1    1    2 1   
     2    1   17 1   
     3    1   18 1   
     4    1   19 1   
     5    2    3 1   
     6    2   20 1   
     7    2   21 1   
     8    3    4 1   
     9    3   22 1   
    10    3   23 1   
    11    4    5 1   
    12    4   24 1   
    13    4   25 1   
    14    5    6 1   
    15    5   26 1   
    16    5   27 1   
    17    6    7 1   
    18    6   28 1   
    19    6   29 1   
    20    7    8 1   
    21    7   30 1   
    22    7   31 1   
    23    8    9 1   
    24    8   32 1   
    25    8   33 1   
    26    9   10 1   
    27    9   34 1   
    28    9   35 1   
    29   10   11 1   
    30   10   36 1   
    31   10   37 1   
    32   11   12 1   
    33   11   38 1   
    34   11   39 1   
    35   12   13 1   
    36   12   40 1   
    37   12   41 1   
    38   13   14 1   
    39   13   42 1   
    40   13   43 1   
    41   14   15 1   
    42   14   44 1   
    43   14   45 1   
    44   15   16 1   
    45   15   46 1   
    46   15   47 1   
    47   16   48 1   
    48   16   49 1   
    49   16   50 1   
@<TRIPOS>SUBSTRUCTURE
     1 R16         1 TEMP              0 ****  ****    0 ROOT
