@<TRIPOS>MOLECULE
molecule
   50    49     1     0     0
SMALL
bcc


@<TRIPOS>ATOM
      1 C27          0.0000     0.0000     0.0000 c3         1 R16      -0.092100
      2 C28          1.5290     0.0000     0.0000 c3         1 R16      -0.084400
      3 C29          2.0400     0.0000     1.4420 c3         1 R16      -0.081400
      4 C30          3.5700    -0.0000     1.4420 c3         1 R16      -0.082400
      5 C31          4.0810    -0.0000     2.8850 c3         1 R16      -0.081900
      6 C32          5.6100    -0.0000     2.8840 c3         1 R16      -0.082400
      7 C33          6.1210    -0.0000     4.3260 c3         1 R16      -0.082400
      8 C34          7.6510    -0.0010     4.3270 c3         1 R16      -0.081400
      9 C35          8.1610     0.0000     5.7680 c3         1 R16      -0.081400
     10 C36          9.6910    -0.0010     5.7690 c3         1 R16      -0.082400
     11 C37         10.2010    -0.0010     7.2110 c3         1 R16      -0.082400
     12 C38         11.7310    -0.0010     7.2100 c3         1 R16      -0.081900
     13 C39         12.2410    -0.0010     8.6530 c3         1 R16      -0.082400
     14 C40         13.7720    -0.0010     8.6520 c3         1 R16      -0.081400
     15 C41         14.2820    -0.0010    10.0950 c3         1 R16      -0.084400
     16 C42         15.8120    -0.0010    10.0950 c3         1 R16      -0.092100
     17 H271        -0.3610     0.8850     0.5110 hc         1 R16       0.032367
     18 H272        -0.3610     0.0000    -1.0210 hc         1 R16       0.032367
     19 H273        -0.3610    -0.8850     0.5110 hc         1 R16       0.032367
     20 H281         1.8900    -0.8840    -0.5110 hc         1 R16       0.039700
     21 H282         1.8900     0.8840    -0.5110 hc         1 R16       0.039700
     22 H291         1.6790     0.8850     1.9530 hc         1 R16       0.040700
     23 H292         1.6790    -0.8850     1.9530 hc         1 R16       0.040700
     24 H301         3.9310     0.8850     0.9310 hc         1 R16       0.040700
     25 H302         3.9310    -0.8850     0.9310 hc         1 R16       0.040700
     26 H311         3.7200     0.8850     3.3950 hc         1 R16       0.040700
     27 H312         3.7200    -0.8850     3.3950 hc         1 R16       0.040700
     28 H321         5.9710    -0.8850     2.3730 hc         1 R16       0.040700
     29 H322         5.9710     0.8850     2.3730 hc         1 R16       0.040700
     30 H331         5.7600     0.8850     4.8370 hc         1 R16       0.040700
     31 H332         5.7590    -0.8840     4.8370 hc         1 R16       0.040700
     32 H341         8.0110    -0.8860     3.8170 hc         1 R16       0.040700
     33 H342         8.0130     0.8830     3.8150 hc         1 R16       0.040700
     34 H351         7.7990    -0.8840     6.2800 hc         1 R16       0.040700
     35 H352         7.8000     0.8850     6.2780 hc         1 R16       0.040700
     36 H361        10.0520    -0.8860     5.2580 hc         1 R16       0.040700
     37 H362        10.0530     0.8830     5.2580 hc         1 R16       0.040700
     38 H371         9.8400    -0.8860     7.7220 hc         1 R16       0.040700
     39 H372         9.8400     0.8840     7.7220 hc         1 R16       0.040700
     40 H381        12.0920     0.8840     6.6990 hc         1 R16       0.040700
     41 H382        12.0920    -0.8860     6.6990 hc         1 R16       0.040700
     42 H391        11.8800    -0.8860     9.1630 hc         1 R16       0.040700
     43 H392        11.8800     0.8840     9.1630 hc         1 R16       0.040700
     44 H401        14.1330    -0.8860     8.1420 hc         1 R16       0.040700
     45 H402        14.1330     0.8840     8.1420 hc         1 R16       0.040700
     46 H411        13.9210    -0.8850    10.6060 hc         1 R16       0.039700
     47 H412        13.9210     0.8830    10.6060 hc         1 R16       0.039700
     48 H421        16.1730    -0.8860     9.5840 hc         1 R16       0.032367
     49 H422        16.1730     0.8840     9.5840 hc         1 R16       0.032367
     50 H423        16.1730    -0.0010    11.1160 hc         1 R16       0.032367
@<TRIPOS>BOND
     1     1     2 1
     2     1    17 1
     3     1    18 1
     4     1    19 1
     5     2     3 1
     6     2    20 1
     7     2    21 1
     8     3     4 1
     9     3    22 1
    10     3    23 1
    11     4     5 1
    12     4    24 1
    13     4    25 1
    14     5     6 1
    15     5    26 1
    16     5    27 1
    17     6     7 1
    18     6    28 1
    19     6    29 1
    20     7     8 1
    21     7    30 1
    22     7    31 1
    23     8     9 1
    24     8    32 1
    25     8    33 1
    26     9    10 1
    27     9    34 1
    28     9    35 1
    29    10    11 1
    30    10    36 1
    31    10    37 1
    32    11    12 1
    33    11    38 1
    34    11    39 1
    35    12    13 1
    36    12    40 1
    37    12    41 1
    38    13    14 1
    39    13    42 1
    40    13    43 1
    41    14    15 1
    42    14    44 1
    43    14    45 1
    44    15    16 1
    45    15    46 1
    46    15    47 1
    47    16    48 1
    48    16    49 1
    49    16    50 1
@<TRIPOS>SUBSTRUCTURE
     1 R16         1 TEMP              0 ****  ****    0 ROOT
