@<TRIPOS>MOLECULE
molecule
   45    48     1     0     0
SMALL
bcc


@<TRIPOS>ATOM
      1 C1           0.0000     0.0000     0.0000 c3         1 R18      -0.036200
      2 C2           1.5240     0.0000     0.0000 c3         1 R18      -0.179400
      3 C3           2.0340     0.0000     1.4180 c          1 R18       0.571300
      4 C4           1.3870     0.7680     2.3890 ce         1 R18      -0.273200
      5 C5           0.1680     1.3300     2.1430 cf         1 R18       0.011800
      6 C6          -0.4190     2.2700     3.1670 c3         1 R18      -0.051200
      7 C7          -1.2500     3.3330     2.4390 c3         1 R18      -0.072400
      8 C8          -2.3330     2.6240     1.6350 c3         1 R18      -0.026500
      9 C9          -1.7000     1.6600     0.6570 ce         1 R18      -0.033200
     10 C10         -0.5340     1.0280     0.9680 cf         1 R18      -0.112200
     11 C11         -2.2820     1.4350    -0.6190 ce         1 R18      -0.160000
     12 C12         -3.4790     1.9420    -0.9620 c2         1 R18      -0.114200
     13 C13         -4.2090     2.7630     0.0450 c3         1 R18      -0.029800
     14 C14         -3.1530     3.6050     0.8200 c3         1 R18      -0.068700
     15 C15         -4.0510     4.5570     1.6170 c3         1 R18      -0.074400
     16 C16         -5.1390     4.9570     0.5820 c3         1 R18      -0.107400
     17 C17         -5.1880     3.8140    -0.4610 c3         1 R18       0.163800
     18 C18         -4.9080     1.8430     1.0480 c3         1 R18      -0.078100
     19 C27         -4.7470     4.3300    -1.8330 c3         1 R18      -0.118100
     20 O83          3.0060    -0.6670     1.7160 o          1 R18      -0.540100
     21 O97         -6.5060     3.2690    -0.5380 oh         1 R18      -0.599800
     22 H12A        -0.3550    -0.9810     0.2920 hc         1 R18       0.058200
     23 H11A        -0.3550     0.2320    -0.9970 hc         1 R18       0.058200
     24 H22          1.8830     0.8860    -0.5100 hc         1 R18       0.069700
     25 H21          1.8830    -0.8860    -0.5100 hc         1 R18       0.069700
     26 H4           1.8600     0.9190     3.3520 ha         1 R18       0.151000
     27 H62          0.3810     2.7500     3.7190 hc         1 R18       0.060200
     28 H61         -1.0540     1.7160     3.8460 hc         1 R18       0.060200
     29 H72         -1.7080     3.9960     3.1630 hc         1 R18       0.051700
     30 H71         -0.6120     3.8990     1.7700 hc         1 R18       0.051700
     31 H8          -2.9850     2.0800     2.3080 hc         1 R18       0.076700
     32 H11         -1.7430     0.8330    -1.3410 ha         1 R18       0.137000
     33 H12         -4.0030     1.5570    -1.8290 ha         1 R18       0.138000
     34 H14         -2.5230     4.1550     0.1310 hc         1 R18       0.065700
     35 H152        -3.4920     5.4280     1.9390 hc         1 R18       0.049700
     36 H151        -4.4960     4.0450     2.4610 hc         1 R18       0.049700
     37 H162        -4.8670     5.8880     0.1000 hc         1 R18       0.052700
     38 H161        -6.1000     5.0520     1.0730 hc         1 R18       0.052700
     39 H183        -4.2440     1.0300     1.3160 hc         1 R18       0.046033
     40 H182        -5.8090     1.4400     0.6020 hc         1 R18       0.046033
     41 H181        -5.1660     2.4060     1.9370 hc         1 R18       0.046033
     42 H273        -5.3010     5.2290    -2.0750 hc         1 R18       0.044367
     43 H272        -3.6880     4.5530    -1.8120 hc         1 R18       0.044367
     44 H271        -4.9420     3.5730    -2.5830 hc         1 R18       0.044367
     45 H97         -7.0610     3.8570    -1.0220 ho         1 R18       0.402000
@<TRIPOS>BOND
     1     1     2 1
     2     1    10 1
     3     1    22 1
     4     1    23 1
     5     2     3 1
     6     2    24 1
     7     2    25 1
     8     3     4 1
     9     3    20 2
    10     4     5 2
    11     4    26 1
    12     5     6 1
    13     5    10 1
    14     6     7 1
    15     6    27 1
    16     6    28 1
    17     7     8 1
    18     7    29 1
    19     7    30 1
    20     8     9 1
    21     8    14 1
    22     8    31 1
    23     9    10 2
    24     9    11 1
    25    11    12 2
    26    11    32 1
    27    12    13 1
    28    12    33 1
    29    13    14 1
    30    13    17 1
    31    13    18 1
    32    14    15 1
    33    14    34 1
    34    15    16 1
    35    15    35 1
    36    15    36 1
    37    16    17 1
    38    16    37 1
    39    16    38 1
    40    17    19 1
    41    17    21 1
    42    18    39 1
    43    18    40 1
    44    18    41 1
    45    19    42 1
    46    19    43 1
    47    19    44 1
    48    21    45 1
@<TRIPOS>SUBSTRUCTURE
     1 R18         1 TEMP              0 ****  ****    0 ROOT
