@<TRIPOS>MOLECULE
R18
   45    48     1     0     0
SMALL
bcc


@<TRIPOS>ATOM
      1 C1          0.1810    0.0800   -0.0430 c3        1 R18     -0.033200
      2 C2          1.6810   -0.0630    0.0940 c3        1 R18     -0.180400
      3 C3          2.1270   -0.1370    1.5250 c         1 R18      0.570300
      4 C4          1.4510    0.8020    2.4240 ce        1 R18     -0.263200
      5 C5          0.2730    1.3820    2.1120 cf        1 R18      0.005800
      6 C6         -0.3350    2.3540    3.0680 c3        1 R18     -0.055200
      7 C7         -1.2610    3.3280    2.3760 c3        1 R18     -0.072400
      8 C8         -2.3130    2.5640    1.5920 c3        1 R18     -0.021500
      9 C9         -1.6710    1.6090    0.6150 ce        1 R18     -0.036200
     10 C10        -0.4510    1.0690    0.8810 cf        1 R18     -0.096200
     11 C11        -2.4220    1.3020   -0.5970 ce        1 R18     -0.152000
     12 C12        -3.6310    1.8160   -0.8890 c2        1 R18     -0.118200
     13 C13        -4.3250    2.7010    0.0860 c3        1 R18     -0.017800
     14 C14        -3.2310    3.5020    0.8350 c3        1 R18     -0.065700
     15 C15        -3.9990    4.5830    1.5790 c3        1 R18     -0.067400
     16 C16        -5.1620    4.9330    0.6470 c3        1 R18     -0.109400
     17 C17        -5.2200    3.8490   -0.4640 c3        1 R18      0.157800
     18 C18        -5.1630    1.8200    1.0080 c3        1 R18     -0.074100
     19 C27        -4.7240    4.3940   -1.7940 c3        1 R18     -0.119100
     20 O83         3.0280   -0.8970    1.8990 o         1 R18     -0.536100
     21 O97        -6.5460    3.3550   -0.6130 oh        1 R18     -0.592800
     22 H12A       -0.3030   -0.9200    0.1370 hc        1 R18      0.055200
     23 H11A       -0.0260    0.3620   -1.1120 hc        1 R18      0.055200
     24 H22         2.1940    0.8240   -0.3690 hc        1 R18      0.071700
     25 H21         2.0210   -0.9770   -0.4610 hc        1 R18      0.071700
     26 H4          1.9650    1.0160    3.3750 ha        1 R18      0.149000
     27 H62         0.4730    2.9200    3.6050 hc        1 R18      0.058700
     28 H61        -0.9080    1.7760    3.8450 hc        1 R18      0.058700
     29 H72        -1.7630    3.9830    3.1350 hc        1 R18      0.050200
     30 H71        -0.6770    3.9920    1.6880 hc        1 R18      0.050200
     31 H8         -2.9200    1.9550    2.3240 hc        1 R18      0.069700
     32 H11        -1.9540    0.6020   -1.3090 ha        1 R18      0.129000
     33 H12        -4.1670    1.5670   -1.8150 ha        1 R18      0.138000
     34 H14        -2.5960    4.0220    0.0580 hc        1 R18      0.055700
     35 H152       -4.3750    4.2040    2.5610 hc        1 R18      0.046700
     36 H151       -3.3550    5.4730    1.7800 hc        1 R18      0.046700
     37 H162       -6.1270    4.9400    1.2100 hc        1 R18      0.051200
     38 H161       -5.0140    5.9440    0.1950 hc        1 R18      0.051200
     39 H183       -5.6030    2.4330    1.8300 hc        1 R18      0.045033
     40 H182       -5.9980    1.3590    0.4250 hc        1 R18      0.045033
     41 H181       -4.5430    1.0020    1.4460 hc        1 R18      0.045033
     42 H273       -3.6540    4.6990   -1.7160 hc        1 R18      0.045033
     43 H272       -5.3290    5.2840   -2.0950 hc        1 R18      0.045033
     44 H271       -4.8230    3.6140   -2.5860 hc        1 R18      0.045033
     45 H97        -7.0730    4.0850   -0.9600 ho        1 R18      0.400000
@<TRIPOS>BOND
     1    1    2 1   
     2    1   10 1   
     3    1   22 1   
     4    1   23 1   
     5    2    3 1   
     6    2   24 1   
     7    2   25 1   
     8    3    4 1   
     9    3   20 2   
    10    4    5 2   
    11    4   26 1   
    12    5    6 1   
    13    5   10 1   
    14    6    7 1   
    15    6   27 1   
    16    6   28 1   
    17    7    8 1   
    18    7   29 1   
    19    7   30 1   
    20    8    9 1   
    21    8   14 1   
    22    8   31 1   
    23    9   10 2   
    24    9   11 1   
    25   11   12 2   
    26   11   32 1   
    27   12   13 1   
    28   12   33 1   
    29   13   14 1   
    30   13   17 1   
    31   13   18 1   
    32   14   15 1   
    33   14   34 1   
    34   15   16 1   
    35   15   35 1   
    36   15   36 1   
    37   16   17 1   
    38   16   37 1   
    39   16   38 1   
    40   17   19 1   
    41   17   21 1   
    42   18   39 1   
    43   18   40 1   
    44   18   41 1   
    45   19   42 1   
    46   19   43 1   
    47   19   44 1   
    48   21   45 1   
@<TRIPOS>SUBSTRUCTURE
     1 R18         1 TEMP              0 ****  ****    0 ROOT
