@<TRIPOS>MOLECULE
R18
   45    48     1     0     0
SMALL
bcc


@<TRIPOS>ATOM
      1 C1          0.1850    0.0880   -0.0470 c3        1 R18     -0.033200
      2 C2          1.6860   -0.0520    0.0910 c3        1 R18     -0.180400
      3 C3          2.1310   -0.1310    1.5220 c         1 R18      0.570300
      4 C4          1.4510    0.8030    2.4250 ce        1 R18     -0.263200
      5 C5          0.2720    1.3810    2.1140 cf        1 R18      0.005800
      6 C6         -0.3400    2.3470    3.0740 c3        1 R18     -0.055200
      7 C7         -1.2660    3.3230    2.3840 c3        1 R18     -0.072400
      8 C8         -2.3160    2.5600    1.5940 c3        1 R18     -0.021500
      9 C9         -1.6700    1.6100    0.6150 ce        1 R18     -0.036200
     10 C10        -0.4500    1.0710    0.8800 cf        1 R18     -0.096200
     11 C11        -2.4180    1.3080   -0.6000 ce        1 R18     -0.152000
     12 C12        -3.6280    1.8210   -0.8920 c2        1 R18     -0.118200
     13 C13        -4.3250    2.7010    0.0850 c3        1 R18     -0.017800
     14 C14        -3.2330    3.5000    0.8390 c3        1 R18     -0.065700
     15 C15        -4.0040    4.5770    1.5860 c3        1 R18     -0.067400
     16 C16        -5.1650    4.9300    0.6530 c3        1 R18     -0.109400
     17 C17        -5.2200    3.8500   -0.4620 c3        1 R18      0.157800
     18 C18        -5.1640    1.8150    1.0020 c3        1 R18     -0.074100
     19 C27        -4.7230    4.4020   -1.7890 c3        1 R18     -0.119100
     20 O83         3.0320   -0.8910    1.8950 o         1 R18     -0.536100
     21 O97        -6.5450    3.3550   -0.6160 oh        1 R18     -0.592800
     22 H12A       -0.2960   -0.9140    0.1290 hc        1 R18      0.055200
     23 H11A       -0.0210    0.3740   -1.1150 hc        1 R18      0.055200
     24 H22         2.1970    0.8380   -0.3680 hc        1 R18      0.071700
     25 H21         2.0290   -0.9630   -0.4670 hc        1 R18      0.071700
     26 H4          1.9620    1.0130    3.3780 ha        1 R18      0.149000
     27 H62        -0.9140    1.7640    3.8460 hc        1 R18      0.058700
     28 H61         0.4660    2.9110    3.6140 hc        1 R18      0.058700
     29 H72        -0.6820    3.9910    1.7000 hc        1 R18      0.050200
     30 H71        -1.7710    3.9740    3.1440 hc        1 R18      0.050200
     31 H8         -2.9230    1.9470    2.3220 hc        1 R18      0.069700
     32 H11        -1.9490    0.6110   -1.3140 ha        1 R18      0.129000
     33 H12        -4.1610    1.5740   -1.8210 ha        1 R18      0.138000
     34 H14        -2.5970    4.0240    0.0650 hc        1 R18      0.055700
     35 H152       -4.3820    4.1940    2.5660 hc        1 R18      0.046700
     36 H151       -3.3610    5.4670    1.7920 hc        1 R18      0.046700
     37 H162       -6.1320    4.9330    1.2150 hc        1 R18      0.051200
     38 H161       -5.0190    5.9420    0.2050 hc        1 R18      0.051200
     39 H183       -5.9970    1.3550    0.4160 hc        1 R18      0.045033
     40 H182       -5.6060    2.4250    1.8250 hc        1 R18      0.045033
     41 H181       -4.5440    0.9970    1.4380 hc        1 R18      0.045033
     42 H273       -3.6530    4.7070   -1.7080 hc        1 R18      0.045033
     43 H272       -5.3280    5.2910   -2.0880 hc        1 R18      0.045033
     44 H271       -4.8190    3.6240   -2.5840 hc        1 R18      0.045033
     45 H97        -7.0730    4.0850   -0.9610 ho        1 R18      0.400000
@<TRIPOS>BOND
     1    1    2 1   
     2    1   10 1   
     3    1   22 1   
     4    1   23 1   
     5    2    3 1   
     6    2   24 1   
     7    2   25 1   
     8    3    4 1   
     9    3   20 2   
    10    4    5 2   
    11    4   26 1   
    12    5    6 1   
    13    5   10 1   
    14    6    7 1   
    15    6   27 1   
    16    6   28 1   
    17    7    8 1   
    18    7   29 1   
    19    7   30 1   
    20    8    9 1   
    21    8   14 1   
    22    8   31 1   
    23    9   10 2   
    24    9   11 1   
    25   11   12 2   
    26   11   32 1   
    27   12   13 1   
    28   12   33 1   
    29   13   14 1   
    30   13   17 1   
    31   13   18 1   
    32   14   15 1   
    33   14   34 1   
    34   15   16 1   
    35   15   35 1   
    36   15   36 1   
    37   16   17 1   
    38   16   37 1   
    39   16   38 1   
    40   17   19 1   
    41   17   21 1   
    42   18   39 1   
    43   18   40 1   
    44   18   41 1   
    45   19   42 1   
    46   19   43 1   
    47   19   44 1   
    48   21   45 1   
@<TRIPOS>SUBSTRUCTURE
     1 R18         1 TEMP              0 ****  ****    0 ROOT
