@<TRIPOS>MOLECULE
molecule
   32    35     1     0     0
SMALL
bcc


@<TRIPOS>ATOM
      1 Cl1          0.0000     0.0000     0.0000 cl         1 R1S      -0.098400
      2 C02          1.7360     0.0000     0.0000 ca         1 R1S       0.028400
      3 C03          2.4260     0.0000     1.1940 ca         1 R1S      -0.075000
      4 C04          3.8180    -0.0010     1.1980 ca         1 R1S      -0.054100
      5 C05          4.5290    -0.0000    -0.0040 ca         1 R1S       0.151400
      6 C06          3.8030    -0.0000    -1.2130 ca         1 R1S      -0.074000
      7 C07          2.4310    -0.0060    -1.2010 ca         1 R1S      -0.114000
      8 N08          5.8660    -0.0020     0.1770 nc         1 R1S      -0.625100
      9 C09          6.3090    -0.0010     1.3860 cd         1 R1S       0.649100
     10 N10          7.6450    -0.0020     1.7360 nu         1 R1S      -0.791100
     11 S11          8.0850     0.1260     3.3280 sy         1 R1S       1.415800
     12 O12          9.5030     0.0610     3.3590 o          1 R1S      -0.609300
     13 O13          7.3430     1.2150     3.8630 o          1 R1S      -0.609300
     14 C14          7.5020    -1.3210     4.1470 cc         1 R1S      -0.315300
     15 C15          6.5890    -1.2800     5.0970 cd         1 R1S       0.051600
     16 S16          6.2280    -2.8830     5.7070 ss         1 R1S      -0.049500
     17 C17          7.3790    -3.6350     4.6100 ca         1 R1S      -0.021100
     18 C18          7.7260    -4.9770     4.4350 ca         1 R1S      -0.088000
     19 C19          8.6620    -5.3330     3.4930 ca         1 R1S      -0.117000
     20 C20          9.2680    -4.3600     2.7100 ca         1 R1S      -0.112000
     21 C21          8.9460    -3.0470     2.8650 ca         1 R1S      -0.100000
     22 C22          7.9880    -2.6530     3.8230 ca         1 R1S      -0.022800
     23 S23          4.9730    -0.0010     2.5290 ss         1 R1S      -0.110100
     24 H1           1.8830     0.0000     2.1320 ha         1 R1S       0.150000
     25 H2           4.3330    -0.0050    -2.1580 ha         1 R1S       0.154000
     26 H3           1.8860    -0.0150    -2.1370 ha         1 R1S       0.151000
     27 H4           8.3480    -0.0400     1.0250 hn         1 R1S       0.483800
     28 H5           6.1220    -0.3710     5.4560 h4         1 R1S       0.195000
     29 H6           7.2560    -5.7400     5.0440 ha         1 R1S       0.138000
     30 H7           8.9270    -6.3750     3.3610 ha         1 R1S       0.139000
     31 H8          10.0050    -4.6490     1.9700 ha         1 R1S       0.139000
     32 H9           9.4280    -2.2990     2.2470 ha         1 R1S       0.138000
@<TRIPOS>BOND
     1     1     2 1
     2     7     2 ar
     3     7     6 ar
     4     2     3 ar
     5     6     5 ar
     6     3     4 ar
     7     5     4 ar
     8     5     8 1
     9     4    23 1
    10    19    20 ar
    11    19    18 ar
    12    20    21 ar
    13     8     9 2
    14    18    17 ar
    15    21    22 ar
    16    23     9 1
    17     9    10 1
    18    17    22 ar
    19    17    16 1
    20    22    14 1
    21    12    11 2
    22    10    11 1
    23    14    11 1
    24    14    15 2
    25    16    15 1
    26    11    13 2
    27     3    24 1
    28     6    25 1
    29     7    26 1
    30    10    27 1
    31    15    28 1
    32    18    29 1
    33    19    30 1
    34    20    31 1
    35    21    32 1
@<TRIPOS>SUBSTRUCTURE
     1 R1S         1 TEMP              0 ****  ****    0 ROOT
