@<TRIPOS>MOLECULE
R1S
   32    35     1     0     0
SMALL
bcc


@<TRIPOS>ATOM
      1 Cl1          0.0000     0.0000     0.0000 cl         1 R1S      -0.014400
      2 C02          1.7360     0.0000     0.0000 ca         1 R1S      -0.039600
      3 C03          2.4260     0.0000     1.1940 ca         1 R1S      -0.037000
      4 C04          3.8180    -0.0010     1.1980 ca         1 R1S      -0.022100
      5 C05          4.5290    -0.0000    -0.0040 ca         1 R1S       0.105400
      6 C06          3.8030    -0.0000    -1.2130 ca         1 R1S      -0.046000
      7 C07          2.4310    -0.0060    -1.2010 ca         1 R1S      -0.090000
      8 N08          5.8660    -0.0020     0.1770 nc         1 R1S      -0.515100
      9 C09          6.3090    -0.0010     1.3860 cd         1 R1S       0.539100
     10 N10          7.6450    -0.0020     1.7360 nu         1 R1S      -0.409100
     11 S11          8.0850     0.1260     3.3280 sy         1 R1S       1.032800
     12 O12          9.5030     0.0610     3.3590 o          1 R1S      -0.564300
     13 O13          7.3430     1.2150     3.8630 o          1 R1S      -0.564300
     14 C14          7.5020    -1.3210     4.1470 cc         1 R1S      -0.151300
     15 C15          6.5890    -1.2800     5.0970 cd         1 R1S       0.145600
     16 S16          6.2280    -2.8830     5.7070 ss         1 R1S      -0.188500
     17 C17          7.3790    -3.6350     4.6100 ca         1 R1S       0.014900
     18 C18          7.7260    -4.9770     4.4350 ca         1 R1S      -0.049000
     19 C19          8.6620    -5.3330     3.4930 ca         1 R1S      -0.091000
     20 C20          9.2680    -4.3600     2.7100 ca         1 R1S      -0.086000
     21 C21          8.9460    -3.0470     2.8650 ca         1 R1S      -0.071000
     22 C22          7.9880    -2.6530     3.8230 ca         1 R1S      -0.023800
     23 S23          4.9730    -0.0010     2.5290 ss         1 R1S      -0.200100
     24 H1           1.8830     0.0000     2.1320 ha         1 R1S       0.122000
     25 H2           4.3330    -0.0050    -2.1580 ha         1 R1S       0.117000
     26 H3           1.8860    -0.0150    -2.1370 ha         1 R1S       0.118000
     27 H4           8.3480    -0.0400     1.0250 hn         1 R1S       0.357800
     28 H5           6.1220    -0.3710     5.4560 h4         1 R1S       0.170000
     29 H6           7.2560    -5.7400     5.0440 ha         1 R1S       0.112000
     30 H7           8.9270    -6.3750     3.3610 ha         1 R1S       0.109000
     31 H8          10.0050    -4.6490     1.9700 ha         1 R1S       0.108000
     32 H9           9.4280    -2.2990     2.2470 ha         1 R1S       0.115000
@<TRIPOS>BOND
     1     1     2 1   
     2     2     3 ar  
     3     2     7 ar  
     4     3     4 ar  
     5     3    24 1   
     6     4     5 ar  
     7     4    23 1   
     8     5     6 ar  
     9     5     8 1   
    10     6     7 ar  
    11     6    25 1   
    12     7    26 1   
    13     8     9 2   
    14     9    10 1   
    15     9    23 1   
    16    10    11 1   
    17    10    27 1   
    18    11    12 2   
    19    11    13 2   
    20    11    14 1   
    21    14    15 2   
    22    14    22 1   
    23    15    16 1   
    24    15    28 1   
    25    16    17 1   
    26    17    18 ar  
    27    17    22 ar  
    28    18    19 ar  
    29    18    29 1   
    30    19    20 ar  
    31    19    30 1   
    32    20    21 ar  
    33    20    31 1   
    34    21    22 ar  
    35    21    32 1   
@<TRIPOS>SUBSTRUCTURE
     1 R1S         1 TEMP              0 ****  ****    0 ROOT
