@<TRIPOS>MOLECULE
molecule
   49    50     1     0     0
SMALL
bcc


@<TRIPOS>ATOM
      1 N1'          0.0000     0.0000     0.0000 nb         1 R1T      -0.736000
      2 C2'          1.3190     0.0000     0.0000 ca         1 R1T       0.629300
      3 CM2          2.0510     0.0020    -1.3170 c3         1 R1T      -0.108400
      4 N3'          2.0130     0.0000     1.1190 nb         1 R1T      -0.774000
      5 C4'          1.4000    -0.0010     2.3000 ca         1 R1T       0.654200
      6 N4'          2.1340    -0.0020     3.4740 nv         1 R1T      -1.078500
      7 C5'          0.0040    -0.0010     2.3350 ca         1 R1T      -0.377900
      8 C6'         -0.6820    -0.0000     1.1360 ca         1 R1T       0.488200
      9 C7'         -0.7350    -0.0020     3.6480 c3         1 R1T       0.053200
     10 C3          -2.2140    -0.1380     3.3920 cc         1 R1T      -0.096300
     11 C2          -2.8190    -1.3220     3.2930 cd         1 R1T      -0.082400
     12 S1          -4.5360    -1.0860     2.9930 ss         1 R1T      -0.127800
     13 C5          -4.3290     0.6610     3.0210 cd         1 R1T       0.037600
     14 C4          -3.0490     0.9570     3.2470 cc         1 R1T      -0.150300
     15 CM4         -2.5470     2.3760     3.3340 c3         1 R1T      -0.023800
     16 C6          -5.4330     1.6690     2.8240 c3         1 R1T      -0.033100
     17 C7          -5.5590     2.0030     1.3360 c3         1 R1T       0.237400
     18 O7          -6.6050     2.9590     1.1500 os         1 R1T      -0.600200
     19 PA          -7.0160     3.5380    -0.2960 p5         1 R1T       1.419800
     20 O1A         -7.3300     2.4140    -1.2060 o          1 R1T      -0.855000
     21 O2A         -5.7920     4.3920    -0.8990 o          1 R1T      -0.855000
     22 O3A         -8.3090     4.4860    -0.1450 os         1 R1T      -0.713800
     23 PB          -9.4290     5.0200    -1.1710 p5         1 R1T       1.308900
     24 O1B         -9.8900     3.9020    -2.0240 o          1 R1T      -0.888500
     25 O2B        -10.6760     5.6130    -0.3430 o          1 R1T      -0.888500
     26 O3B         -8.8000     6.1780    -2.0970 o          1 R1T      -0.888500
     27 CP1         -2.1360    -2.6610     3.4180 c3         1 R1T       0.228400
     28 CP2         -2.4680    -3.2780     4.7770 c3         1 R1T      -0.120100
     29 OP1         -2.5900    -3.5260     2.3760 oh         1 R1T      -0.594800
     30 HP1         -1.8970    -4.1180     2.1340 ho         1 R1T       0.388000
     31 H1          -1.0640    -2.5280     3.3340 h1         1 R1T       0.038700
     32 H61         -6.3680     1.2550     3.1810 hc         1 R1T       0.055700
     33 H62         -5.2020     2.5700     3.3780 hc         1 R1T       0.055700
     34 H71         -5.7900     1.1020     0.7820 h1         1 R1T       0.026200
     35 H72         -4.6240     2.4170     0.9790 h1         1 R1T       0.026200
     36 HM41        -2.2200     2.7040     2.3550 hc         1 R1T       0.043700
     37 HM42        -3.3450     3.0200     3.6840 hc         1 R1T       0.043700
     38 HM43        -1.7160     2.4230     4.0270 hc         1 R1T       0.043700
     39 H7'1        -0.3960    -0.8350     4.2530 hc         1 R1T       0.041200
     40 H7'2        -0.5430     0.9260     4.1720 hc         1 R1T       0.041200
     41 H6'         -1.7650    -0.0010     1.1240 h4         1 R1T       0.060100
     42 HM21         1.3720    -0.2940    -2.1080 hc         1 R1T       0.042367
     43 HM22         2.4290     0.9960    -1.5190 hc         1 R1T       0.042367
     44 HM23         2.8780    -0.6970    -1.2720 hc         1 R1T       0.042367
     45 H4'1         2.4570    -0.8660     3.8610 hn         1 R1T       0.417800
     46 H4'2         2.3790     0.8640     3.9110 hn         1 R1T       0.417800
     47 HP21        -1.5750    -3.7200     5.2010 hc         1 R1T       0.036367
     48 HP22        -3.2250    -4.0440     4.6510 hc         1 R1T       0.036367
     49 HP23        -2.8410    -2.5090     5.4420 hc         1 R1T       0.036367
@<TRIPOS>BOND
     1     1     2 ar
     2     1     8 ar
     3     2     4 ar
     4     2     3 1
     5     3    42 1
     6     3    43 1
     7     3    44 1
     8     4     5 ar
     9     5     7 ar
    10     5     6 1
    11     6    45 1
    12     6    46 1
    13     7     9 1
    14     7     8 ar
    15     8    41 1
    16     9    10 1
    17     9    39 1
    18     9    40 1
    19    10    11 2
    20    10    14 1
    21    11    27 1
    22    11    12 1
    23    12    13 1
    24    13    14 2
    25    13    16 1
    26    14    15 1
    27    15    36 1
    28    15    37 1
    29    15    38 1
    30    16    32 1
    31    16    33 1
    32    16    17 1
    33    17    34 1
    34    17    35 1
    35    17    18 1
    36    18    19 1
    37    19    20 1
    38    19    21 1
    39    19    22 1
    40    22    23 1
    41    23    24 1
    42    23    25 1
    43    23    26 1
    44    27    29 1
    45    27    31 1
    46    27    28 1
    47    28    47 1
    48    28    48 1
    49    28    49 1
    50    29    30 1
@<TRIPOS>SUBSTRUCTURE
     1 R1T         1 TEMP              0 ****  ****    0 ROOT
