@<TRIPOS>MOLECULE
R20
   21    22     1     0     0
SMALL
bcc


@<TRIPOS>ATOM
      1 C1          0.0210    0.1420   -0.0180 ca        1 R20     -0.103500
      2 C2         -0.7170    0.1490   -1.2620 cc        1 R20      0.322800
      3 C3          1.4070   -0.0670   -0.0030 ca        1 R20     -0.100000
      4 C4         -0.6570    0.3500    1.1940 ca        1 R20     -0.129000
      5 C5         -2.0900    0.4130   -1.4720 cd        1 R20     -0.219600
      6 C7          2.1100   -0.0700    1.2070 ca        1 R20     -0.078300
      7 C8          0.0440    0.3480    2.3960 ca        1 R20     -0.128000
      8 C11         1.4220    0.1400    2.4070 ca        1 R20     -0.126000
      9 C12         3.5720   -0.3070    1.2120 c3        1 R20     -0.054800
     10 N6         -0.1650   -0.1200   -2.5460 nc        1 R20     -0.350000
     11 N9         -2.2480    0.2820   -2.8540 na        1 R20     -0.062600
     12 N10        -1.0730   -0.0340   -3.4290 nd        1 R20     -0.167800
     13 H3          1.9540   -0.2310   -0.9440 ha        1 R20      0.154000
     14 H4         -1.7440    0.5130    1.1950 ha        1 R20      0.124000
     15 H5         -2.9020    0.6660   -0.7960 h4        1 R20      0.192000
     16 H8         -0.4930    0.5120    3.3420 ha        1 R20      0.131000
     17 H11         1.9710    0.1400    3.3610 ha        1 R20      0.132000
     18 H121        3.7790   -1.4070    1.2000 hc        1 R20      0.046033
     19 H122        4.0480    0.1290    2.1240 hc        1 R20      0.046033
     20 H123        4.0530    0.1470    0.3100 hc        1 R20      0.046033
     21 HN9        -3.0800    0.3930   -3.3820 hn        1 R20      0.326700
@<TRIPOS>BOND
     1    1    2 1   
     2    1    3 ar  
     3    1    4 ar  
     4    2    5 2   
     5    2   10 1   
     6    3    6 ar  
     7    3   13 1   
     8    4    7 ar  
     9    4   14 1   
    10    5   11 1   
    11    5   15 1   
    12    6    8 ar  
    13    6    9 1   
    14    7    8 ar  
    15    7   16 1   
    16    8   17 1   
    17    9   18 1   
    18    9   19 1   
    19    9   20 1   
    20   10   12 2   
    21   11   12 1   
    22   11   21 1   
@<TRIPOS>SUBSTRUCTURE
     1 R20         1 TEMP              0 ****  ****    0 ROOT
