@<TRIPOS>MOLECULE
molecule
   21    22     1     0     0
SMALL
bcc


@<TRIPOS>ATOM
      1 C1           0.0000     0.0000     0.0000 ca         1 R20      -0.106500
      2 C2          -0.7450    -0.0060    -1.2850 cc         1 R20       0.336800
      3 C3           1.3930     0.0000     0.0000 ca         1 R20      -0.098000
      4 C4          -0.6910     0.0120     1.2090 ca         1 R20      -0.123000
      5 C5          -1.8760     0.6980    -1.5790 cd         1 R20      -0.284600
      6 C7           2.0800     0.0000     1.1970 ca         1 R20      -0.084300
      7 C8           0.0060     0.0180     2.4000 ca         1 R20      -0.127000
      8 C11          1.3890     0.0120     2.3940 ca         1 R20      -0.123000
      9 C12          3.5870    -0.0060     1.1980 c3         1 R20      -0.047800
     10 N6          -0.4370    -0.7020    -2.3930 nc         1 R20      -0.352000
     11 N9          -2.1930     0.3810    -2.8550 na         1 R20       0.018400
     12 N10         -1.3180    -0.4520    -3.2970 nd         1 R20      -0.200800
     13 H3           1.9360    -0.0090    -0.9380 ha         1 R20       0.147000
     14 H4          -1.7750     0.0170     1.2140 ha         1 R20       0.128000
     15 H5          -2.4120     1.3740    -0.9240 h4         1 R20       0.185000
     16 H8          -0.5310     0.0270     3.3410 ha         1 R20       0.130000
     17 H11          1.9320     0.0140     3.3310 ha         1 R20       0.130000
     18 H121         3.9450    -0.9940     0.9340 hc         1 R20       0.044700
     19 H122         3.9490     0.2570     2.1850 hc         1 R20       0.044700
     20 H123         3.9520     0.7150     0.4760 hc         1 R20       0.044700
     21 HN9         -2.9770     0.7330    -3.3680 hn         1 R20       0.335700
@<TRIPOS>BOND
     1     1     2 1
     2     1     3 ar
     3     1     4 ar
     4     2     5 2
     5     2    10 1
     6     3     6 ar
     7     3    13 1
     8     4     7 ar
     9     4    14 1
    10     5    11 1
    11     5    15 1
    12     6     8 ar
    13     6     9 1
    14     7     8 ar
    15     7    16 1
    16     8    17 1
    17     9    18 1
    18     9    19 1
    19     9    20 1
    20    10    12 2
    21    11    12 1
    22    11    21 1
@<TRIPOS>SUBSTRUCTURE
     1 R20         1 TEMP              0 ****  ****    0 ROOT
