@<TRIPOS>MOLECULE
R21
   42    43     1     0     0
SMALL
bcc


@<TRIPOS>ATOM
      1 Cl           0.0000     0.0000     0.0000 cl         1 R21      -0.001400
      2 OAA          4.5270     9.2180     9.7380 o          1 R21      -0.494300
      3 CAC          2.7120     0.0000     0.0000 ca         1 R21       0.138100
      4 CAD          3.9530     0.0000     0.6180 ca         1 R21      -0.143000
      5 CAE          4.0380    -0.0120     1.9970 ca         1 R21      -0.070000
      6 CAG          2.0490     5.0360     8.9570 ca         1 R21      -0.104000
      7 CAH          2.0720     6.3350     9.4290 ca         1 R21       0.017500
      8 CAI          3.2780     6.9910     9.5900 ca         1 R21      -0.233500
      9 SAJ          3.3060     8.6480    10.1900 sy         1 R21       0.936200
     10 NAK          3.4120     8.5690    11.8410 nz         1 R21      -0.131500
     11 CAL          1.5560    -0.0070     0.7690 ca         1 R21      -0.070600
     12 CAM          1.6460    -0.0180     2.1490 ca         1 R21      -0.065000
     13 CAN          2.8860    -0.0250     2.7620 ca         1 R21      -0.071300
     14 CAO          2.9820    -0.0380     4.2650 c3         1 R21      -0.028100
     15 CAP          3.0060     1.3790     4.7800 c          1 R21       0.574100
     16 NAQ          3.0880     1.6140     6.1050 ns         1 R21      -0.220900
     17 CAR          3.1130     2.9900     6.6050 c3         1 R21       0.063000
     18 CAS          3.2090     2.9770     8.1320 c3         1 R21      -0.005100
     19 CAT          3.2330     4.3930     8.6460 ca         1 R21       0.023700
     20 CAU          4.4390     5.0500     8.8050 ca         1 R21      -0.104000
     21 CAV          4.4620     6.3490     9.2770 ca         1 R21       0.017500
     22 OAW          2.0330     9.2040     9.8950 o          1 R21      -0.494300
     23 HOAB         2.6900     0.8980    -1.6680 ho         1 R21       0.409000
     24 HAD          4.8560    -0.0090     0.0200 ha         1 R21       0.119000
     25 HAE          5.0810    -0.1050     2.2760 ha         1 R21       0.109000
     26 HAG          1.1040     4.5210     8.8310 ha         1 R21       0.135500
     27 HAH          1.1440     6.8380     9.6730 ha         1 R21       0.126000
     28 HNAK         4.2480     8.0840    12.0990 hn         1 R21       0.313133
     29 HNAA         3.4330     9.4950    12.2190 hn         1 R21       0.313133
     30 HAM          0.7450    -0.0400     2.7500 ha         1 R21       0.113000
     31 HAO          2.1250    -0.5570     4.6770 hc         1 R21       0.032700
     32 HAOA         3.8900    -0.5460     4.5650 hc         1 R21       0.032700
     33 HNAQ         3.1350     0.8480     6.7470 hn         1 R21       0.177500
     34 HAR          2.2050     3.4990     6.3040 h1         1 R21       0.029700
     35 HARA         3.9700     3.5080     6.1930 h1         1 R21       0.029700
     36 HAS          4.1170     2.4690     8.4320 hc         1 R21       0.034700
     37 HASA         2.3510     2.4590     8.5430 hc         1 R21       0.034700
     38 HAU          5.3670     4.5460     8.5610 ha         1 R21       0.135500
     39 HAV          5.4070     6.8630     9.4020 ha         1 R21       0.126000
     40 OAF          2.9500     2.3070     4.0020 o          1 R21      -0.623100
     41 HAK3         2.6420     8.0390    12.1990 hn         1 R21       0.313133
     42 OAB          2.6270     0.0110    -1.3560 oh         1 R21      -0.492100
@<TRIPOS>BOND
     1     1    11 1   
     2     2     9 2   
     3     3     4 ar  
     4     3    11 ar  
     5     3    42 1   
     6     4     5 ar  
     7     4    24 1   
     8     5    13 ar  
     9     5    25 1   
    10     6     7 ar  
    11     6    19 ar  
    12     6    26 1   
    13     7     8 ar  
    14     7    27 1   
    15     8     9 1   
    16     8    21 ar  
    17     9    10 1   
    18     9    22 2   
    19    10    28 1   
    20    10    29 1   
    21    10    41 1   
    22    11    12 ar  
    23    12    13 ar  
    24    12    30 1   
    25    13    14 1   
    26    14    15 1   
    27    14    31 1   
    28    14    32 1   
    29    15    16 1   
    30    15    40 2   
    31    16    17 1   
    32    16    33 1   
    33    17    18 1   
    34    17    34 1   
    35    17    35 1   
    36    18    19 1   
    37    18    36 1   
    38    18    37 1   
    39    19    20 ar  
    40    20    21 ar  
    41    20    38 1   
    42    21    39 1   
    43    23    42 1   
@<TRIPOS>SUBSTRUCTURE
     1 R21         1 TEMP              0 ****  ****    0 ROOT
