@<TRIPOS>MOLECULE
R22
   46    45     1     0     0
SMALL
bcc


@<TRIPOS>ATOM
      1 C1'        -0.7190   -0.7080    1.4880 c1        1 R22     -0.035400
      2 C2'         4.2140    0.4290   -1.2090 c1        1 R22     -0.157500
      3 C3'         4.5550    0.7970   -0.1230 c1        1 R22     -0.145100
      4 C4'         1.5750    0.3220    3.9380 c3        1 R22     -0.057900
      5 C5'         0.2600    0.7640    3.4000 ce        1 R22      0.040100
      6 C6'        -0.2790   -0.0380    2.3750 cg        1 R22     -0.137300
      7 O7'        -1.1300   -1.5870    0.5740 os        1 R22     -0.131700
      8 C8'         4.9600    1.2370    1.1730 c3        1 R22     -0.020000
      9 C9'        -0.3750    1.8560    3.8530 c2        1 R22     -0.203000
     10 N1         -4.5600   -0.8020   -1.6560 n         1 R22     -0.430100
     11 C2         -3.5340    0.1660   -1.7320 c         1 R22      0.707700
     12 C3         -2.3290   -0.0760   -0.9340 cc        1 R22     -0.152400
     13 C4         -2.2750   -1.2020   -0.1560 cd        1 R22      0.228100
     14 C5         -3.3390   -2.1660   -0.1040 cd        1 R22     -0.223200
     15 C6         -4.4670   -1.9320   -0.8830 cc        1 R22      0.126400
     16 C7         -5.5970   -2.9090   -0.8840 c3        1 R22     -0.093900
     17 I9         -0.8320    1.2660   -1.0950 i         1 R22     -0.055800
     18 C10        -3.2300   -3.3580    0.7570 c3        1 R22      0.059900
     19 S11        -2.9300   -4.8900   -0.0910 ss        1 R22     -0.322200
     20 C12        -1.3030   -4.7140   -0.7920 c3        1 R22      0.084800
     21 C13        -1.3520   -4.5090   -2.1960 c1        1 R22     -0.140100
     22 O14        -2.7940   -6.0000   -5.3690 oh        1 R22     -0.500100
     23 C15        -2.0730   -4.8770   -5.6530 c2        1 R22      0.070100
     24 C16        -1.4270   -4.1000   -4.7600 ce        1 R22     -0.159700
     25 C17        -1.3970   -4.3340   -3.3820 cg        1 R22     -0.140300
     26 H2'         3.9080    0.1030   -2.1700 ha        1 R22      0.164500
     27 H4'         2.3460    0.3350    3.1270 hc        1 R22      0.048033
     28 H6'         1.5000   -0.7210    4.3340 hc        1 R22      0.048033
     29 H8'1        4.1560    1.0280    1.9260 hc        1 R22      0.052700
     30 H8'2        5.8930    0.7060    1.4950 hc        1 R22      0.052700
     31 H8'3        5.1630    2.3390    1.1690 hc        1 R22      0.052700
     32 H9'1        1.9140    0.9940    4.7630 hc        1 R22      0.048033
     33 H9'2       -1.3420    2.1870    3.4560 ha        1 R22      0.122000
     34 H9'3        0.0500    2.4800    4.6500 ha        1 R22      0.122000
     35 HN1        -5.3750   -0.6550   -2.2150 hn        1 R22      0.340500
     36 H71        -6.3330   -2.7230   -1.7040 hc        1 R22      0.075033
     37 H72        -5.1780   -3.9450   -1.0050 hc        1 R22      0.075033
     38 H73        -6.1350   -2.8530    0.0970 hc        1 R22      0.075033
     39 H101       -4.1980   -3.5480    1.2930 h1        1 R22      0.086700
     40 H102       -2.4330   -3.2040    1.5290 h1        1 R22      0.086700
     41 H121       -0.7660   -5.6710   -0.5520 h1        1 R22      0.097200
     42 H122       -0.7590   -3.8690   -0.2890 h1        1 R22      0.097200
     43 H15        -2.7670   -6.1620   -4.4120 ho        1 R22      0.428000
     44 H16        -2.0930   -4.6860   -6.7400 h4        1 R22      0.169000
     45 H17        -0.8750   -3.2100   -5.1110 ha        1 R22      0.158000
     46 O8         -3.7500    1.1420   -2.4730 o         1 R22     -0.611500
@<TRIPOS>BOND
     1    1    6 3
     2    1    7 1
     3    2    3 3
     4    2   26 1
     5    3    8 1
     6    4    5 1
     7    4   27 1
     8    4   28 1
     9    4   32 1
    10    5    6 1
    11    5    9 2
    12    7   13 1
    13    8   29 1
    14    8   30 1
    15    8   31 1
    16    9   33 1
    17    9   34 1
    18   10   11 1
    19   10   15 1
    20   10   35 1
    21   11   12 1
    22   11   46 2
    23   12   13 2
    24   12   17 1
    25   13   14 1
    26   14   15 2
    27   14   18 1
    28   15   16 1
    29   16   36 1
    30   16   37 1
    31   16   38 1
    32   18   19 1
    33   18   39 1
    34   18   40 1
    35   19   20 1
    36   20   21 1
    37   20   41 1
    38   20   42 1
    39   21   25 3
    40   22   23 1
    41   22   43 1
    42   23   24 2
    43   23   44 1
    44   24   25 1
    45   24   45 1
@<TRIPOS>SUBSTRUCTURE
     1 R22         1 TEMP              0 ****  ****    0 ROOT
