@<TRIPOS>MOLECULE
R23
   65    68     1     0     0
SMALL
bcc


@<TRIPOS>ATOM
      1 C4E         0.8780   -0.8610   -0.7320 c3        1 R23     -0.080400
      2 C5E         2.1530   -0.4460   -0.0310 c3        1 R23     -0.076900
      3 C6E         1.9110   -0.1940    1.4560 c3        1 R23      0.168300
      4 N1E         1.2640   -1.3150    2.1290 n3        1 R23     -0.731600
      5 C2E         0.0470   -1.7550    1.4570 c3        1 R23      0.168300
      6 C3E         0.2510   -2.0450   -0.0280 c3        1 R23     -0.076900
      7 C1D         1.0440   -1.0370    3.5430 c3        1 R23      0.209100
      8 C4C         0.7540   -2.2610    4.3640 ca        1 R23     -0.063300
      9 C3C         1.5340   -3.4160    4.2340 ca        1 R23     -0.111500
     10 C2C         1.2860   -4.5260    5.0390 ca        1 R23     -0.125500
     11 C1C         0.2580   -4.4980    5.9880 ca        1 R23     -0.107300
     12 C6C        -0.5200   -3.3420    6.1170 ca        1 R23     -0.125500
     13 C5C        -0.2760   -2.2330    5.3110 ca        1 R23     -0.111500
     14 C4B         0.0090   -5.6970    6.8450 c3        1 R23     -0.015400
     15 C3B         0.2110   -5.3660    8.3190 c3        1 R23     -0.076900
     16 C2B        -0.0400   -6.5740    9.1990 c3        1 R23     -0.099400
     17 C1B        -1.4590   -7.0940    8.9610 c3        1 R23      0.138500
     18 C6B        -1.6610   -7.4600    7.4860 c3        1 R23     -0.099400
     19 C5B        -1.3950   -6.2460    6.6190 c3        1 R23     -0.076900
     20 N4         -1.8180   -8.2750    9.8570 n4        1 R23     -0.557200
     21 C1         -0.8830   -9.4260    9.6350 c         1 R23      0.607100
     22 O3         -1.4730  -10.3500    8.8270 os        1 R23     -0.322200
     23 C1F        -0.7060  -11.4850    8.4850 ca        1 R23      0.043100
     24 C6F        -0.8050  -12.6290    9.2820 ca        1 R23     -0.095000
     25 C5F        -0.1710  -13.7920    8.8510 ca        1 R23     -0.109000
     26 C4F         0.5510  -13.7910    7.6490 ca        1 R23      0.045400
     27 C3F         0.6450  -12.6300    6.8690 ca        1 R23     -0.109000
     28 C2F         0.0170  -11.4590    7.2870 ca        1 R23     -0.095000
     29 C1A        -1.8380   -7.9040   11.2940 c3        1 R23      0.089100
     30 O2          0.2290   -9.5050   10.1320 o         1 R23     -0.405000
     31 CL31        1.3200  -15.2060    7.1360 cl        1 R23     -0.031400
     32 H4E1        1.0990   -1.1260   -1.7980 hc        1 R23      0.044200
     33 H4E2        0.1560   -0.0020   -0.7410 hc        1 R23      0.044200
     34 H5E1        2.9290   -1.2450   -0.1570 hc        1 R23      0.049200
     35 H5E2        2.5540    0.4960   -0.4860 hc        1 R23      0.049200
     36 H6E1        2.9040   -0.0240    1.9590 h1        1 R23      0.030950
     37 H6E2        1.3060    0.7550    1.5650 h1        1 R23      0.030950
     38 H2E1       -0.7790   -0.9890    1.5600 h1        1 R23      0.030950
     39 H2E2       -0.2950   -2.6960    1.9720 h1        1 R23      0.030950
     40 H3E1       -0.7470   -2.2800   -0.4810 hc        1 R23      0.049200
     41 H3E2        0.9050   -2.9460   -0.1520 hc        1 R23      0.049200
     42 H1D1        0.2100   -0.2880    3.6950 h1        1 R23      0.044700
     43 H1D2        1.9890   -0.5740    3.9570 h1        1 R23      0.044700
     44 H3C         2.3450   -3.4470    3.4890 ha        1 R23      0.150000
     45 H2C         1.9070   -5.4270    4.9240 ha        1 R23      0.126000
     46 H6C        -1.3320   -3.3030    6.8580 ha        1 R23      0.126000
     47 H5C        -0.8970   -1.3320    5.4210 ha        1 R23      0.150000
     48 H4B         0.7470   -6.5040    6.5660 hc        1 R23      0.058700
     49 H3B1       -0.4700   -4.5260    8.6160 hc        1 R23      0.072200
     50 H3B2        1.2660   -5.0170    8.4810 hc        1 R23      0.072200
     51 H2B1        0.7110   -7.3760    8.9670 hc        1 R23      0.067200
     52 H2B2        0.0930   -6.2790   10.2730 hc        1 R23      0.067200
     53 H1B        -2.1980   -6.2830    9.2440 hx        1 R23      0.104700
     54 H6B1       -0.9630   -8.2930    7.2020 hc        1 R23      0.067200
     55 H6B2       -2.7110   -7.8160    7.3100 hc        1 R23      0.067200
     56 H5B1       -2.1540   -5.4490    6.8340 hc        1 R23      0.072200
     57 H5B2       -1.5120   -6.5400    5.5420 hc        1 R23      0.072200
     58 H6F        -1.3760  -12.6160   10.2220 ha        1 R23      0.155500
     59 H5F        -0.2400  -14.7100    9.4580 ha        1 R23      0.173500
     60 H3F         1.2140  -12.6390    5.9250 ha        1 R23      0.173500
     61 H2F         0.0780  -10.5410    6.6840 ha        1 R23      0.155500
     62 H1A1       -2.2880   -8.7460   11.8860 hx        1 R23      0.111367
     63 H1A2       -2.4520   -6.9740   11.4260 hx        1 R23      0.111367
     64 H1A3       -0.7870   -7.7210   11.6500 hx        1 R23      0.111367
     65 H41        -2.7610   -8.5860    9.5750 hn        1 R23      0.467800
@<TRIPOS>BOND
     1    1    2 1   
     2    1    6 1   
     3    1   32 1   
     4    1   33 1   
     5    2    3 1   
     6    2   34 1   
     7    2   35 1   
     8    3    4 1   
     9    3   36 1   
    10    3   37 1   
    11    4    5 1   
    12    4    7 1   
    13    5    6 1   
    14    5   38 1   
    15    5   39 1   
    16    6   40 1   
    17    6   41 1   
    18    7    8 1   
    19    7   42 1   
    20    7   43 1   
    21    8    9 ar  
    22    8   13 ar  
    23    9   10 ar  
    24    9   44 1   
    25   10   11 ar  
    26   10   45 1   
    27   11   12 ar  
    28   11   14 1   
    29   12   13 ar  
    30   12   46 1   
    31   13   47 1   
    32   14   15 1   
    33   14   19 1   
    34   14   48 1   
    35   15   16 1   
    36   15   49 1   
    37   15   50 1   
    38   16   17 1   
    39   16   51 1   
    40   16   52 1   
    41   17   18 1   
    42   17   20 1   
    43   17   53 1   
    44   18   19 1   
    45   18   54 1   
    46   18   55 1   
    47   19   56 1   
    48   19   57 1   
    49   20   21 1   
    50   20   29 1   
    51   20   65 1   
    52   21   22 1   
    53   21   30 2   
    54   22   23 1   
    55   23   24 ar  
    56   23   28 ar  
    57   24   25 ar  
    58   24   58 1   
    59   25   26 ar  
    60   25   59 1   
    61   26   27 ar  
    62   26   31 1   
    63   27   28 ar  
    64   27   60 1   
    65   28   61 1   
    66   29   62 1   
    67   29   63 1   
    68   29   64 1   
@<TRIPOS>SUBSTRUCTURE
     1 R23         1 TEMP              0 ****  ****    0 ROOT
