@<TRIPOS>MOLECULE
R24
   69    73     1     0     0
SMALL
bcc


@<TRIPOS>ATOM
      1 C1           0.0000     0.0000     0.0000 ca         1 R24      -0.461200
      2 C2           1.3930     0.0000     0.0000 ca         1 R24      -0.030000
      3 C3           2.0950     0.0000     1.1660 ca         1 R24      -0.156300
      4 C4          -0.6980     0.0000     1.1700 ca         1 R24       0.032000
      5 C5          -0.0060    -0.0010     2.3890 ca         1 R24      -0.230300
      6 C6           1.4090     0.0010     2.3930 ca         1 R24       0.456600
      7 C8          -0.6940    -0.0010     3.6260 ca         1 R24       0.099600
      8 C10          0.0620    -0.0010     4.7880 ca         1 R24      -0.353300
      9 C11          1.4480    -0.0010     4.7080 ca         1 R24       0.496200
     10 C12         -2.7360    -0.1600     4.8970 ca         1 R24       0.009600
     11 C13         -2.2740    -1.0880     5.8200 ca         1 R24      -0.141000
     12 C14         -2.9290    -1.2420     7.0330 ca         1 R24      -0.046400
     13 C15         -4.0450    -0.4680     7.3210 ca         1 R24      -0.152000
     14 N38         -0.7310     0.0060    -1.2860 no         1 R24       1.049200
     15 O40         -0.1140     0.0120    -2.3370 o          1 R24      -0.454000
     16 O39         -1.9490     0.0060    -1.2960 o          1 R24      -0.454000
     17 N7           2.0750    -0.0010     3.5540 nb         1 R24      -0.637000
     18 N9          -2.0800    -0.0010     3.6750 nu         1 R24      -0.185000
     19 C17         -3.8570     0.6080     5.1900 ca         1 R24      -0.142000
     20 C16         -4.5040     0.4550     6.4010 ca         1 R24      -0.052000
     21 N18         -2.4650    -2.1780     7.9650 ns         1 R24      -0.052100
     22 C19         -1.9110    -3.3320     7.5430 c          1 R24       0.554100
     23 O20         -1.9100    -3.6090     6.3590 o          1 R24      -0.666100
     24 N21         -1.3600    -4.1800     8.4350 ns         1 R24      -0.018100
     25 C22         -0.7890    -5.3740     7.9980 cc         1 R24      -0.239700
     26 C26         -0.7160    -5.8090     6.7110 cd         1 R24      -0.330300
     27 C25         -0.0670    -7.0480     6.7120 cd         1 R24       0.392600
     28 C27          0.2290    -7.8890     5.4970 c3         1 R24      -0.081300
     29 C29          1.3950    -7.2730     4.7210 c3         1 R24       0.006900
     30 C30          0.6010    -9.3070     5.9350 c3         1 R24       0.006900
     31 C28         -1.0100    -7.9400     4.5990 c3         1 R24       0.006900
     32 N24          0.2420    -7.3530     7.9460 nc         1 R24      -0.649800
     33 N23         -0.1950    -6.3160     8.7810 na         1 R24       0.582300
     34 C31         -0.0490    -6.2600    10.1740 ca         1 R24      -0.138200
     35 C32         -0.1260    -7.4230    10.9290 ca         1 R24      -0.109000
     36 C33          0.0180    -7.3640    12.3010 ca         1 R24      -0.082500
     37 C34          0.2390    -6.1490    12.9230 ca         1 R24      -0.088300
     38 C37          0.3960    -6.0890    14.4210 c3         1 R24       0.063200
     39 C35          0.3170    -4.9900    12.1740 ca         1 R24      -0.082500
     40 C36          0.1780    -5.0420    10.8010 ca         1 R24      -0.109000
     41 H2           1.9260    -0.0000    -0.9430 ha         1 R24       0.133000
     42 H3           3.1780     0.0000     1.1490 ha         1 R24       0.128000
     43 H4          -1.7810     0.0000     1.1590 ha         1 R24       0.126000
     44 H10         -0.4270    -0.0010     5.7550 ha         1 R24       0.147000
     45 H11          2.0280    -0.0010     5.6230 h4         1 R24      -0.024900
     46 H13         -1.4030    -1.6920     5.5930 ha         1 R24       0.165000
     47 H15         -4.5550    -0.5870     8.2690 ha         1 R24       0.108000
     48 HN9         -2.6100     0.1130     2.8340 hn         1 R24       0.295800
     49 H17         -4.2200     1.3330     4.4710 ha         1 R24       0.112000
     50 H16         -5.3770     1.0570     6.6280 ha         1 R24       0.106000
     51 HN18        -2.6440    -2.0390     8.9400 hn         1 R24       0.163500
     52 HN21        -1.4030    -3.9740     9.4130 hn         1 R24       0.170500
     53 H26         -1.1420    -5.3150     5.8460 ha         1 R24       0.192000
     54 H29          1.6570    -7.9170     3.8910 hc         1 R24       0.008144
     55 H29A         1.1040    -6.2990     4.3450 hc         1 R24       0.008144
     56 H29B         2.2490    -7.1650     5.3780 hc         1 R24       0.008144
     57 H30         -0.2050    -9.7250     6.5270 hc         1 R24       0.008144
     58 H30A         0.7640    -9.9240     5.0600 hc         1 R24       0.008144
     59 H30B         1.5060    -9.2750     6.5290 hc         1 R24       0.008144
     60 H28         -1.8770    -8.2000     5.1940 hc         1 R24       0.008144
     61 H28A        -1.1640    -6.9710     4.1400 hc         1 R24       0.008144
     62 H28B        -0.8650    -8.6870     3.8270 hc         1 R24       0.008144
     63 H32         -0.2990    -8.3750    10.4420 ha         1 R24       0.120500
     64 H33         -0.0420    -8.2710    12.8910 ha         1 R24       0.110500
     65 H37          0.5510    -7.0890    14.8080 hc         1 R24       0.010033
     66 H37A         1.2480    -5.4690    14.6710 hc         1 R24       0.010033
     67 H37B        -0.4990    -5.6670    14.8610 hc         1 R24       0.010033
     68 H35          0.4920    -4.0400    12.6650 ha         1 R24       0.110500
     69 H36          0.2400    -4.1330    10.2150 ha         1 R24       0.120500
@<TRIPOS>BOND
     1     1     2 ar  
     2     1     4 ar  
     3     1    14 1   
     4     2     3 ar  
     5     2    41 1   
     6     3     6 ar  
     7     3    42 1   
     8     4     5 ar  
     9     4    43 1   
    10     5     6 ar  
    11     5     7 ar  
    12     6    17 ar  
    13     7     8 ar  
    14     7    18 1   
    15     8     9 ar  
    16     8    44 1   
    17     9    17 ar  
    18     9    45 1   
    19    10    11 ar  
    20    10    18 1   
    21    10    19 ar  
    22    11    12 ar  
    23    11    46 1   
    24    12    13 ar  
    25    12    21 1   
    26    13    20 ar  
    27    13    47 1   
    28    14    15 1   
    29    14    16 1   
    30    18    48 1   
    31    19    20 ar  
    32    19    49 1   
    33    20    50 1   
    34    21    22 1   
    35    21    51 1   
    36    22    23 2   
    37    22    24 1   
    38    24    25 1   
    39    24    52 1   
    40    25    26 2   
    41    25    33 1   
    42    26    27 1   
    43    26    53 1   
    44    27    28 1   
    45    27    32 2   
    46    28    29 1   
    47    28    30 1   
    48    28    31 1   
    49    29    54 1   
    50    29    55 1   
    51    29    56 1   
    52    30    57 1   
    53    30    58 1   
    54    30    59 1   
    55    31    60 1   
    56    31    61 1   
    57    31    62 1   
    58    32    33 1   
    59    33    34 1   
    60    34    35 ar  
    61    34    40 ar  
    62    35    36 ar  
    63    35    63 1   
    64    36    37 ar  
    65    36    64 1   
    66    37    38 1   
    67    37    39 ar  
    68    38    65 1   
    69    38    66 1   
    70    38    67 1   
    71    39    40 ar  
    72    39    68 1   
    73    40    69 1   
@<TRIPOS>SUBSTRUCTURE
     1 R24         1 TEMP              0 ****  ****    0 ROOT
