@<TRIPOS>MOLECULE
molecule
   37    39     1     0     0
SMALL
bcc


@<TRIPOS>ATOM
      1 N37         -1.3040     0.0080    -2.2120 n1         1 R26      -0.388800
      2 CAW         -0.7180     0.0000    -1.2390 cg         1 R26       0.250800
      3 CAV          0.0000     0.0000     0.0000 ca         1 R26      -0.048000
      4 CAU          1.3970     0.0000     0.0000 ca         1 R26      -0.104000
      5 CAT          2.0830     0.0000     1.1970 ca         1 R26      -0.100000
      6 CAY         -0.6920     0.0070     1.2120 ca         1 R26      -0.104000
      7 CAZ          0.0070     0.0070     2.4020 ca         1 R26      -0.100000
      8 CAS          1.3900    -0.0010     2.3960 ca         1 R26      -0.036300
      9 CAR          2.1470    -0.0020     3.6990 c3         1 R26       0.219100
     10 NAQ          2.3930     1.3790     4.1220 nu         1 R26      -0.892900
     11 CAP          3.0750     1.6300     5.2970 ca         1 R26       0.632900
     12 CAC          3.4030     2.9620     5.6400 ca         1 R26       0.286500
     13 CAB          3.0110     4.0640     4.7360 c          1 R26       0.786100
     14 OAA          3.4150     5.3230     4.9930 o          1 R26      -0.806800
     15 OBA          2.3230     3.8340     3.7610 o          1 R26      -0.806800
     16 NAD          4.0530     3.2380     6.7570 nb         1 R26      -0.581000
     17 CAE          4.4090     2.2460     7.5730 ca         1 R26       0.255300
     18 CAF          5.1020     2.4890     8.7740 ca         1 R26      -0.129300
     19 CAG          5.4410     1.4420     9.5740 ca         1 R26      -0.153000
     20 NAO          3.4070     0.6240     6.0840 nb         1 R26      -0.805000
     21 CAN          4.0700     0.8670     7.2190 ca         1 R26       0.305300
     22 CAM          4.4500    -0.1680     8.0890 ca         1 R26      -0.177300
     23 CAH          5.1190     0.1300     9.2360 ca         1 R26      -0.135300
     24 CAI          5.5230    -0.9870    10.1640 c3         1 R26       0.668200
     25 FAL          6.1940    -0.4550    11.2700 f          1 R26      -0.232967
     26 FAJ          4.3800    -1.6700    10.5950 f          1 R26      -0.232967
     27 FAK          6.3680    -1.8730     9.4870 f          1 R26      -0.232967
     28 H1           1.8560    -0.4070    -0.8930 ha         1 R26       0.135500
     29 H2           3.1080    -0.3460     1.1370 ha         1 R26       0.144500
     30 H3          -1.7530    -0.0490     1.0030 ha         1 R26       0.135500
     31 H4          -0.7310    -0.0350     3.1940 ha         1 R26       0.144500
     32 H5           1.6400    -0.2780     4.6160 h1         1 R26       0.064200
     33 H6           3.1370    -0.4360     3.6300 h1         1 R26       0.064200
     34 H7           2.0390     1.9760     3.4020 hn         1 R26       0.503800
     35 H9           4.7700     3.2970     9.4150 ha         1 R26       0.143000
     36 H10          5.6130     1.7000    10.6120 ha         1 R26       0.133000
     37 H11          4.0190    -0.9030     7.4190 ha         1 R26       0.195000
@<TRIPOS>BOND
     1    15    13 1
     2    14    13 1
     3    13    12 1
     4     4     5 ar
     5     4     3 ar
     6     1     2 3
     7    12    16 ar
     8    12    11 ar
     9     2     3 1
    10     5     8 ar
    11    16    17 ar
    12     3     6 ar
    13    10    11 1
    14    10     9 1
    15    11    20 ar
    16    17    18 ar
    17    17    21 ar
    18     8     9 1
    19     8     7 ar
    20    18    19 ar
    21     6     7 ar
    22    20    21 ar
    23    21    22 ar
    24    19    23 ar
    25    22    23 ar
    26    23    24 1
    27    26    24 1
    28    24    25 1
    29    24    27 1
    30     4    28 1
    31     5    29 1
    32     6    30 1
    33     7    31 1
    34     9    32 1
    35     9    33 1
    36    10    34 1
    37    18    35 1
    38    19    36 1
    39    22    37 1
@<TRIPOS>SUBSTRUCTURE
     1 R26         1 TEMP              0 ****  ****    0 ROOT
