@<TRIPOS>MOLECULE
molecule
   41    43     1     0     0
SMALL
bcc


@<TRIPOS>ATOM
      1 C1           0.0000     0.0000     0.0000 ca         1 R2C      -0.116000
      2 C2           1.3820     0.0000     0.0000 ca         1 R2C       0.104100
      3 C3           2.0830     0.0000     1.2010 ca         1 R2C      -0.238000
      4 C4           1.4070     0.0020     2.4030 ca         1 R2C      -0.130000
      5 C5           0.0180     0.0010     2.4220 ca         1 R2C       0.107600
      6 C6          -0.6960     0.0020     1.2130 ca         1 R2C      -0.067600
      7 C7          -2.1680     0.0020     1.2210 c          1 R2C       0.878200
      8 O8          -2.8490    -0.0600     0.0600 o          1 R2C      -0.822800
      9 O9          -2.7700     0.0590     2.2760 o          1 R2C      -0.822800
     10 O10          2.0590    -0.0020    -1.1800 os         1 R2C      -0.334900
     11 C11          3.4860    -0.0030    -1.1080 c3         1 R2C       0.132700
     12 N12         -0.6640     0.0020     3.6340 nu         1 R2C      -0.654000
     13 C13         -1.1960    -1.1900     4.1380 ca         1 R2C       0.268600
     14 C14         -0.9390    -2.3930     3.4930 ca         1 R2C      -0.189500
     15 C15         -1.4650    -3.5690     3.9910 ca         1 R2C      -0.092000
     16 C16         -2.2510    -3.5490     5.1340 ca         1 R2C      -0.002900
     17 C17         -2.5080    -2.3470     5.7790 ca         1 R2C      -0.092000
     18 C18         -1.9790    -1.1720     5.2860 ca         1 R2C      -0.189500
     19 O19         -2.7690    -4.7070     5.6240 os         1 R2C      -0.238200
     20 C20         -1.9200    -5.5830     6.2240 ca         1 R2C       0.152100
     21 C21         -0.5920    -5.2330     6.4300 ca         1 R2C      -0.187500
     22 C22          0.2680    -6.1250     7.0400 ca         1 R2C      -0.100500
     23 C23         -0.1920    -7.3640     7.4460 ca         1 R2C      -0.183000
     24 C24         -1.5140    -7.7150     7.2420 ca         1 R2C      -0.100500
     25 C25         -2.3800    -6.8250     6.6370 ca         1 R2C      -0.187500
     26 H1          -0.5430     0.0000    -0.9370 ha         1 R2C       0.174000
     27 H3           3.1660     0.0000     1.1920 ha         1 R2C       0.113000
     28 H4           1.9600     0.0010     3.3350 ha         1 R2C       0.115000
     29 H111         3.8980    -0.0040    -2.1100 h1         1 R2C       0.029033
     30 H112         3.8210    -0.8870    -0.5790 h1         1 R2C       0.029033
     31 H113         3.8210     0.8820    -0.5810 h1         1 R2C       0.029033
     32 HN12        -0.7400     0.8470     4.1650 hn         1 R2C       0.439800
     33 H14         -0.3250    -2.4090     2.6010 ha         1 R2C       0.137500
     34 H15         -1.2640    -4.5080     3.4880 ha         1 R2C       0.127500
     35 H17         -3.1200    -2.3320     6.6730 ha         1 R2C       0.127500
     36 H18         -2.1800    -0.2340     5.7900 ha         1 R2C       0.137500
     37 H21         -0.2320    -4.2620     6.1130 ha         1 R2C       0.146500
     38 H22          1.3040    -5.8530     7.2020 ha         1 R2C       0.121500
     39 H23          0.4860    -8.0620     7.9220 ha         1 R2C       0.117000
     40 H24         -1.8720    -8.6850     7.5620 ha         1 R2C       0.121500
     41 H25         -3.4150    -7.1000     6.4770 ha         1 R2C       0.146500
@<TRIPOS>BOND
     1     1     6 ar
     2     1     2 ar
     3     1    26 1
     4     2     3 ar
     5     2    10 1
     6     3     4 ar
     7     3    27 1
     8     4     5 ar
     9     4    28 1
    10     5    12 1
    11     5     6 ar
    12     6     7 1
    13     7     9 1
    14     7     8 1
    15    10    11 1
    16    11    29 1
    17    11    30 1
    18    11    31 1
    19    12    13 1
    20    12    32 1
    21    13    18 ar
    22    13    14 ar
    23    14    15 ar
    24    14    33 1
    25    15    16 ar
    26    15    34 1
    27    16    17 ar
    28    16    19 1
    29    17    18 ar
    30    17    35 1
    31    18    36 1
    32    19    20 1
    33    20    21 ar
    34    20    25 ar
    35    21    22 ar
    36    21    37 1
    37    22    23 ar
    38    22    38 1
    39    23    24 ar
    40    23    39 1
    41    24    25 ar
    42    24    40 1
    43    25    41 1
@<TRIPOS>SUBSTRUCTURE
     1 R2C         1 TEMP              0 ****  ****    0 ROOT
