@<TRIPOS>MOLECULE
R2G
   16    16     1     0     0
SMALL
bcc


@<TRIPOS>ATOM
      1 C1'         0.1010   -0.0380   -0.0730 c2        1 R2G      0.048100
      2 C2'         1.4390    0.1230    0.0000 c2        1 R2G     -0.330200
      3 C3'         1.9080   -0.1780    1.4040 c3        1 R2G      0.169300
      4 O3'         2.5820    0.8920    2.0230 oh        1 R2G     -0.581800
      5 C4'         0.5760   -0.5300    2.1300 c3        1 R2G      0.042100
      6 O4'        -0.4820   -0.4120    1.1340 os        1 R2G     -0.350900
      7 C5'         0.5600   -1.9550    2.6680 c3        1 R2G      0.129400
      8 O5'        -0.6530   -2.2430    3.3290 oh        1 R2G     -0.593800
      9 H1'        -0.6230    0.0680   -0.8820 h4        1 R2G      0.182000
     10 H2'         2.1300    0.4160   -0.7850 ha        1 R2G      0.168000
     11 H3'         2.6380   -1.0310    1.4380 h1        1 R2G      0.094700
     12 HO3'        2.0520    1.6880    1.8940 ho        1 R2G      0.406000
     13 H4'         0.3280    0.2090    2.9360 h1        1 R2G      0.090700
     14 H5'         0.7290   -2.6850    1.8310 h1        1 R2G      0.056700
     15 H5'A        1.3570   -2.0760    3.4500 h1        1 R2G      0.056700
     16 HO5'       -1.3670   -2.0800    2.6990 ho        1 R2G      0.412000
@<TRIPOS>BOND
     1    1    2 2   
     2    1    6 1   
     3    1    9 1   
     4    2    3 1   
     5    2   10 1   
     6    3    4 1   
     7    3    5 1   
     8    3   11 1   
     9    4   12 1   
    10    5    6 1   
    11    5    7 1   
    12    5   13 1   
    13    7    8 1   
    14    7   14 1   
    15    7   15 1   
    16    8   16 1   
@<TRIPOS>SUBSTRUCTURE
     1 R2G         1 TEMP              0 ****  ****    0 ROOT
