@<TRIPOS>MOLECULE
molecule
   21    22     1     0     0
SMALL
bcc


@<TRIPOS>ATOM
      1 C1           0.0000     0.0000     0.0000 c3         1 R2N       0.056600
      2 N2           1.4650     0.0000     0.0000 na         1 R2N      -0.036400
      3 C3           2.2690     0.0000     1.1230 cc         1 R2N      -0.047300
      4 C4           3.5740    -0.0010     0.7370 cd         1 R2N      -0.208200
      5 C5           3.6030    -0.0020    -0.6780 ca         1 R2N      -0.101800
      6 C6           4.6430    -0.0020    -1.6180 ca         1 R2N      -0.062000
      7 C7           4.3520    -0.0040    -2.9520 ca         1 R2N      -0.053900
      8 Br8          5.7570    -0.0050    -4.2170 br         1 R2N      -0.157100
      9 C9           3.0310    -0.0030    -3.3880 ca         1 R2N      -0.125000
     10 C10          1.9940    -0.0020    -2.4830 ca         1 R2N      -0.133000
     11 C11          2.2650    -0.0070    -1.1180 ca         1 R2N      -0.060200
     12 C12          1.7930     0.0010     2.5130 c          1 R2N       0.896800
     13 O13          2.5920     0.0010     3.4290 o          1 R2N      -0.824800
     14 O14          0.4690     0.0020     2.7710 o          1 R2N      -0.824800
     15 H1          -0.3610     0.8850     0.5100 h1         1 R2N       0.049700
     16 H1A         -0.3610    -0.0000    -1.0210 h1         1 R2N       0.049700
     17 H1B         -0.3610    -0.8840     0.5110 h1         1 R2N       0.049700
     18 H4           4.4350    -0.0020     1.3940 ha         1 R2N       0.161000
     19 H6           5.6710     0.0780    -1.2880 ha         1 R2N       0.131000
     20 H9           2.8170    -0.0040    -4.4500 ha         1 R2N       0.122000
     21 H10          0.9680    -0.0020    -2.8330 ha         1 R2N       0.118000
@<TRIPOS>BOND
     1    15     1 1
     2    17     1 1
     3     2     1 1
     4     1    16 1
     5    11     2 1
     6     2     3 1
     7     4     3 2
     8     3    12 1
     9     5     4 1
    10     4    18 1
    11     6     5 ar
    12    11     5 ar
    13     7     6 ar
    14     6    19 1
    15     8     7 1
    16     9     7 ar
    17    20     9 1
    18     9    10 ar
    19    21    10 1
    20    10    11 ar
    21    13    12 1
    22    12    14 1
@<TRIPOS>SUBSTRUCTURE
     1 R2N         1 TEMP              0 ****  ****    0 ROOT
