@<TRIPOS>MOLECULE
R2S
   32    35     1     0     0
SMALL
bcc


@<TRIPOS>ATOM
      1 Cl1          0.0000     0.0000     0.0000 cl         1 R2S      -0.017400
      2 C02          1.7360     0.0000     0.0000 ca         1 R2S      -0.040600
      3 C03          2.4270     0.0000     1.1930 ca         1 R2S      -0.037000
      4 C04          3.8190    -0.0000     1.1970 ca         1 R2S      -0.027100
      5 C05          4.5300    -0.0010    -0.0060 ca         1 R2S       0.101400
      6 C06          3.8020    -0.0010    -1.2150 ca         1 R2S      -0.047000
      7 C07          2.4300    -0.0070    -1.2020 ca         1 R2S      -0.092000
      8 N08          5.8660    -0.0020     0.1740 nc         1 R2S      -0.516100
      9 C09          6.3100    -0.0010     1.3840 cd         1 R2S       0.527100
     10 N10          7.6460    -0.0010     1.7320 nu         1 R2S      -0.407100
     11 S11          8.0850    -0.0010     3.3290 sy         1 R2S       1.044800
     12 O12          9.5050    -0.0360     3.3550 o          1 R2S      -0.555300
     13 O13          7.3200     1.0220     3.9550 o          1 R2S      -0.555300
     14 C14          7.5370    -1.5250     4.0210 cc         1 R2S      -0.079500
     15 C15          8.2600    -2.6270     4.0560 cd         1 R2S       0.069800
     16 C16          7.6080    -3.7670     4.6800 ca         1 R2S      -0.128800
     17 C17          8.0940    -5.0780     4.8800 ca         1 R2S      -0.037000
     18 C18          7.3210    -6.0140     5.4930 ca         1 R2S      -0.111000
     19 C19          6.0420    -5.6970     5.9330 ca         1 R2S      -0.069000
     20 C20          5.5430    -4.4300     5.7510 ca         1 R2S      -0.068000
     21 C21          6.3210    -3.4510     5.1250 ca         1 R2S       0.047900
     22 S22          5.9640    -1.7680     4.7570 ss         1 R2S      -0.117500
     23 S23          4.9750     0.0000     2.5270 ss         1 R2S      -0.165100
     24 H1           1.8840     0.0000     2.1310 ha         1 R2S       0.122000
     25 H2           4.3300    -0.0060    -2.1610 ha         1 R2S       0.116000
     26 H3           1.8840    -0.0160    -2.1370 ha         1 R2S       0.117000
     27 H4           8.3490     0.0350     1.0200 hn         1 R2S       0.357800
     28 H5           9.2640    -2.6790     3.6510 ha         1 R2S       0.130000
     29 H6           9.0900    -5.3390     4.5420 ha         1 R2S       0.106000
     30 H7           7.7060    -7.0160     5.6400 ha         1 R2S       0.109000
     31 H8           5.4360    -6.4520     6.4200 ha         1 R2S       0.108000
     32 H9           4.5450    -4.1870     6.0960 ha         1 R2S       0.114000
@<TRIPOS>BOND
     1     1     2 1   
     2     2     3 ar  
     3     2     7 ar  
     4     3     4 ar  
     5     3    24 1   
     6     4     5 ar  
     7     4    23 1   
     8     5     6 ar  
     9     5     8 1   
    10     6     7 ar  
    11     6    25 1   
    12     7    26 1   
    13     8     9 2   
    14     9    10 1   
    15     9    23 1   
    16    10    11 1   
    17    10    27 1   
    18    11    12 2   
    19    11    13 2   
    20    11    14 1   
    21    14    15 2   
    22    14    22 1   
    23    15    16 1   
    24    15    28 1   
    25    16    17 ar  
    26    16    21 ar  
    27    17    18 ar  
    28    17    29 1   
    29    18    19 ar  
    30    18    30 1   
    31    19    20 ar  
    32    19    31 1   
    33    20    21 ar  
    34    20    32 1   
    35    21    22 1   
@<TRIPOS>SUBSTRUCTURE
     1 R2S         1 TEMP              0 ****  ****    0 ROOT
