@<TRIPOS>MOLECULE
molecule
   59    59     1     0     0
SMALL
bcc


@<TRIPOS>ATOM
      1 P            0.0000     0.0000     0.0000 p5         1 R2Z       1.200900
      2 N0          -2.4090     2.7990    -2.3910 ns         1 R2Z      -0.574900
      3 O0          -2.5450     1.2030    -3.9260 o          1 R2Z      -0.598100
      4 C1          -0.6200     3.2000    -3.9810 c2         1 R2Z      -0.110200
      5 N1          -0.8100     6.5500    -1.4470 ns         1 R2Z      -0.575900
      6 C2          -0.0130     4.3210    -4.2840 c2         1 R2Z      -0.144400
      7 C3           0.3550     5.4300    -3.3210 c3         1 R2Z      -0.096500
      8 N3          -1.0270     4.2360     3.2280 nu         1 R2Z      -0.892200
      9 C4           1.0400     6.5350    -4.1520 c3         1 R2Z      -0.076400
     10 N4          -0.7690     5.0010     5.4030 n2         1 R2Z      -0.927100
     11 C5           0.5140     6.2940    -5.5900 c3         1 R2Z      -0.082400
     12 N5          -0.5440     2.7260     5.0050 nz         1 R2Z      -0.908600
     13 C6           0.4570     4.7460    -5.6630 c3         1 R2Z      -0.037200
     14 C7          -0.8870     5.9760    -2.6650 c          1 R2Z       0.678100
     15 C9          -2.0310     6.9790    -0.7610 c3         1 R2Z       0.067700
     16 C10         -2.4100     8.3600    -1.2280 c          1 R2Z       0.370100
     17 C11         -1.7860     7.0010     0.7490 c3         1 R2Z      -0.123400
     18 C12         -1.5230     5.5780     1.2440 c3         1 R2Z      -0.091400
     19 C13         -1.2790     5.5990     2.7540 c3         1 R2Z       0.277800
     20 C14         -0.7790     4.0060     4.5600 c2         1 R2Z       0.713100
     21 O1P          1.6100     0.0000     0.0000 o          1 R2Z      -0.772167
     22 C20         -0.9540     2.8880    -2.5460 c3         1 R2Z       0.139900
     23 C21         -0.3170     1.5550    -2.1510 c3         1 R2Z       0.188400
     24 O2P         -0.5370     0.0000     1.5170 o          1 R2Z      -0.772167
     25 O3P         -0.4930    -1.2080    -0.6980 o          1 R2Z      -0.772167
     26 O4P         -0.5350     1.3150    -0.7590 os         1 R2Z      -0.610200
     27 HN0         -2.8650     3.2860    -1.6450 hn         1 R2Z       0.291500
     28 H1          -0.8430     2.4820    -4.7620 ha         1 R2Z       0.173000
     29 HN1          0.0810     6.7100    -1.0190 hn         1 R2Z       0.335500
     30 HN2         -4.2740     8.3270    -0.8230 hn         1 R2Z       0.457800
     31 HN2A        -3.6870     9.7990    -1.2520 hn         1 R2Z       0.457800
     32 H3           1.0410     5.0500    -2.5730 hc         1 R2Z       0.076700
     33 HN3         -0.8230     3.4310     2.6680 hn         1 R2Z       0.478800
     34 H4           0.7580     7.5190    -3.7960 hc         1 R2Z       0.048200
     35 H4A          2.1160     6.4080    -4.1210 hc         1 R2Z       0.048200
     36 HN4         -0.7420     4.1390     4.8960 hn         1 R2Z       0.524400
     37 H5          -0.4640     6.7390    -5.7330 hc         1 R2Z       0.050200
     38 H5A          1.2360     6.6610    -6.3090 hc         1 R2Z       0.050200
     39 HN5          0.3980     2.4730     4.7810 hn         1 R2Z       0.454133
     40 HN5A        -0.6310     2.5500     5.9870 hn         1 R2Z       0.454133
     41 H6           1.4210     4.3300    -5.9290 hc         1 R2Z       0.058200
     42 H6A         -0.2900     4.4550    -6.3930 hc         1 R2Z       0.058200
     43 H9          -2.8340     6.2880    -0.9870 h1         1 R2Z       0.109700
     44 H11         -2.6090     7.4690     1.2750 hc         1 R2Z       0.043700
     45 H11A        -0.8820     7.5690     0.9310 hc         1 R2Z       0.043700
     46 H12         -0.6430     5.1760     0.7570 hc         1 R2Z       0.080700
     47 H12A        -2.4030     5.1880     0.7460 hc         1 R2Z       0.080700
     48 H13         -2.1310     6.0300     3.2660 h1         1 R2Z       0.054700
     49 H13A        -0.3980     6.1960     2.9610 h1         1 R2Z       0.054700
     50 H20         -0.5690     3.6750    -1.9080 h1         1 R2Z       0.026700
     51 H21          0.7020     1.4670    -2.5070 h1         1 R2Z       0.057700
     52 H21A        -0.9030     0.7940    -2.6520 h1         1 R2Z       0.057700
     53 H22         -4.1800     1.8410    -2.9920 h5         1 R2Z       0.010200
     54 N2          -3.5070     8.9640    -0.7300 nz         1 R2Z      -0.663400
     55 O2          -1.9560     5.8990    -3.2310 o          1 R2Z      -0.585100
     56 O3          -1.7270     8.9310    -2.0540 o          1 R2Z      -0.434100
     57 H53         -1.0020     2.0140     4.4720 hn         1 R2Z       0.454133
     58 H23         -3.3540     9.1980     0.2310 hn         1 R2Z       0.457800
     59 C22         -3.1180     1.9580    -3.1700 c          1 R2Z       0.662900
@<TRIPOS>BOND
     1    26     1 1
     2    24     1 1
     3    21     1 1
     4     1    25 1
     5    59     2 1
     6     2    22 1
     7     2    27 1
     8     3    59 2
     9     4    22 1
    10     4     6 2
    11     4    28 1
    12    15     5 1
    13     5    14 1
    14     5    29 1
    15    13     6 1
    16     6     7 1
    17    16    54 1
    18    54    30 1
    19    54    31 1
    20    14    55 2
    21    14     7 1
    22     7     9 1
    23     7    32 1
    24    20     8 1
    25     8    19 1
    26     8    33 1
    27    16    56 2
    28    11     9 1
    29     9    34 1
    30     9    35 1
    31    10    20 2
    32    10    36 1
    33    13    11 1
    34    11    37 1
    35    11    38 1
    36    12    20 1
    37    12    39 1
    38    12    40 1
    39    13    41 1
    40    13    42 1
    41    17    15 1
    42    15    16 1
    43    15    43 1
    44    18    17 1
    45    17    44 1
    46    17    45 1
    47    19    18 1
    48    18    46 1
    49    18    47 1
    50    19    48 1
    51    19    49 1
    52    22    23 1
    53    22    50 1
    54    26    23 1
    55    23    51 1
    56    23    52 1
    57    59    53 1
    58    57    12 1
    59    58    54 1
@<TRIPOS>SUBSTRUCTURE
     1 R2Z         1 TEMP              0 ****  ****    0 ROOT
