@<TRIPOS>MOLECULE
R2Z
   62    56     1     0     0
SMALL
bcc


@<TRIPOS>ATOM
      1 P        -143.9990  187.9790  -98.6450 p5        1 R2Z      2.538000
      2 N0       -147.5840  190.6490  -98.3760 n4        1 R2Z     -0.107000
      3 O0       -147.9340  191.9780 -102.1390 o         1 R2Z     -0.046000
      4 C1       -148.3700  188.7790  -96.8910 c2        1 R2Z      0.159000
      5 N1        -47.4860 -225.1550  -41.1790 n         1 R2Z     -0.398000
      6 C2       -148.9050  189.6650  -96.0860 c1        1 R2Z     -0.629000
      7 C3        -49.0380 -224.3480  -42.9010 c2        1 R2Z     -0.560000
      8 N3        226.3180   66.6650  161.8020 n3        1 R2Z     -0.316000
      9 C4        -49.9630 -223.7610  -42.1650 c1        1 R2Z      0.361000
     10 N4        226.9590   67.4990  159.5360 n2        1 R2Z     -0.220000
     11 C5         -6.1580   -5.8070   -3.2860 c3        1 R2Z     -0.266000
     12 N5        228.5450   67.5100  161.2840 n4        1 R2Z     -0.055000
     13 C6       -149.4700  190.4290  -95.2110 c1        1 R2Z      0.367000
     14 C7        -47.8110 -225.0450  -42.5360 c2        1 R2Z      0.409000
     15 C9        -46.1410 -225.4500  -40.7700 c3        1 R2Z      0.037000
     16 C10       -45.8660 -226.9660  -40.6840 c2        1 R2Z      0.229000
     17 C11       -45.7660 -224.8400  -39.4180 c3        1 R2Z     -0.240000
     18 C12       223.9200   66.6780  161.0140 c3        1 R2Z     -0.261000
     19 C13       225.1690   65.8910  161.3650 c3        1 R2Z     -0.074000
     20 C14       227.1240   67.2460  160.7870 c2        1 R2Z      0.092000
     21 O1P      -143.8640  187.4450  -99.9690 o         1 R2Z     -0.912000
     22 C20      -147.6980  189.1680  -98.1910 c3        1 R2Z     -0.186000
     23 C21      -146.4330  188.3500  -98.3000 c1        1 R2Z      0.111000
     24 O2P      -143.7470  187.5340  -97.1090 os        1 R2Z     -0.497500
     25 O3P      -143.0450  188.6360  -97.5110 os        1 R2Z     -0.497500
     26 O4P      -145.3240  188.9930  -98.5460 os        1 R2Z     -0.612000
     27 HN0      -147.6620  190.9110  -99.3990 hn        1 R2Z      0.270000
     28 H1       -148.3800  187.6850  -96.7070 ha        1 R2Z      0.196000
     29 HN1       -48.0560 -224.6870  -40.5070 hn        1 R2Z      0.256000
     30 HN2       -45.8540 -228.7170  -41.8510 hn        1 R2Z      0.273000
     31 HN2A      -47.3060 -227.8920  -41.8740 hn        1 R2Z      0.273000
     32 H3        -49.2030 -224.3040  -44.0100 ha        1 R2Z      0.253000
     33 HN3       224.0740   67.3330  160.1230 hc        1 R2Z      0.101000
     34 H4        -45.6710 -226.5960  -44.9950 ha        1 R2Z      0.002250
     35 H4A       -45.4350 -227.1030  -44.6100 ha        1 R2Z      0.002250
     36 HN4       226.0530   67.3670  159.1350 hn        1 R2Z      0.239000
     37 H5         -6.0740   -4.8280   -2.7670 hc        1 R2Z      0.066000
     38 H5A        -5.5880   -5.7710   -4.2400 hc        1 R2Z      0.066000
     39 HN5       228.9280   66.6400  161.6720 hn        1 R2Z      0.271333
     40 HN5A      229.1380   67.8290  160.5060 hn        1 R2Z      0.271333
     41 H6         -7.2280   -6.0210   -3.5020 hc        1 R2Z      0.066000
     42 H6A        -5.7430   -6.6080   -2.6370 hc        1 R2Z      0.066000
     43 H9        -44.7150 -225.1270  -39.1630 hc        1 R2Z      0.124667
     44 H11       -46.4390 -225.2030  -38.6040 hc        1 R2Z      0.124667
     45 H11A      -45.8280 -223.7260  -39.4760 hc        1 R2Z      0.124667
     46 H12       223.5850   67.3150  161.8690 hc        1 R2Z      0.101000
     47 H12A      223.0990   65.9560  160.7770 hc        1 R2Z      0.101000
     48 H13       224.9390   65.2040  162.2350 h1        1 R2Z      0.128000
     49 H13A      225.4720   65.2440  160.4940 h1        1 R2Z      0.128000
     50 H20      -148.3680  188.7650  -99.0270 hx        1 R2Z      0.205000
     51 H21         3.3260   -4.2290    1.1820 ha        1 R2Z      0.002250
     52 H21A        3.9900   -4.2260    1.0520 ha        1 R2Z      0.002250
     53 H22      -146.6790  190.9670  -98.0210 hn        1 R2Z      0.270000
     54 N2        -46.2870 -227.7880  -41.8740 n4        1 R2Z     -0.151000
     55 O2        -47.0650 -225.6010  -43.3730 o         1 R2Z     -0.401000
     56 O3        -45.2910 -227.5730  -39.7980 o         1 R2Z     -0.154000
     57 H02      -148.3260  191.1250  -97.8460 hn        1 R2Z      0.270000
     58 H121      -45.4100 -225.0770  -41.5620 h1        1 R2Z      0.156000
     59 H32       226.1060   67.2960  162.5540 hn        1 R2Z      0.222000
     60 H53       228.5240   68.2290  162.0110 hn        1 R2Z      0.271333
     61 H23       -46.0230 -227.2950  -42.7510 hn        1 R2Z      0.273000
     62 C22      -147.8290  191.5530 -101.0640 c1        1 R2Z      0.102000
@<TRIPOS>BOND
     1    1   21 1   
     2    1   24 1   
     3    1   25 1   
     4    1   26 1   
     5    2   22 1   
     6    2   27 1   
     7    2   53 1   
     8    2   57 1   
     9    3   62 1   
    10    4    6 1   
    11    4   22 1   
    12    4   28 1   
    13    5   14 1   
    14    5   15 1   
    15    5   29 1   
    16    6   13 1   
    17    7    9 1   
    18    7   14 1   
    19    7   32 1   
    20    8   19 1   
    21    8   20 1   
    22    8   59 1   
    23   10   20 1   
    24   10   36 1   
    25   11   37 1   
    26   11   38 1   
    27   11   41 1   
    28   11   42 1   
    29   12   20 1   
    30   12   39 1   
    31   12   40 1   
    32   12   60 1   
    33   14   55 1   
    34   15   16 1   
    35   15   17 1   
    36   15   58 1   
    37   16   54 1   
    38   16   56 1   
    39   17   43 1   
    40   17   44 1   
    41   17   45 1   
    42   18   19 1   
    43   18   33 1   
    44   18   46 1   
    45   18   47 1   
    46   19   48 1   
    47   19   49 1   
    48   22   23 1   
    49   22   50 1   
    50   23   26 1   
    51   24   25 1   
    52   30   54 1   
    53   31   54 1   
    54   34   35 1   
    55   51   52 1   
    56   54   61 1   
@<TRIPOS>SUBSTRUCTURE
     1 R2Z         1 TEMP              0 ****  ****    0 ROOT
