@<TRIPOS>MOLECULE
R30
   51    54     1     0     0
SMALL
bcc


@<TRIPOS>ATOM
      1 O01          0.0000     0.0000     0.0000 o          1 R30      -0.613100
      2 C02          1.2130     0.0000     0.0000 c          1 R30       0.557100
      3 N03          1.8870     0.0000     1.1670 n          1 R30       0.044000
      4 C04          1.1910     0.1050     2.3780 ca         1 R30      -0.093400
      5 C05         -0.1970     0.0670     2.3860 ca         1 R30      -0.149500
      6 C06         -0.8830     0.1700     3.5800 ca         1 R30      -0.090500
      7 C07         -0.1850     0.3100     4.7720 ca         1 R30      -0.104400
      8 N08         -0.8810     0.4130     5.9830 ns         1 R30      -0.038100
      9 C09         -0.4000     1.1920     6.9720 c          1 R30       0.558100
     10 C10         -1.0820     1.2110     8.3160 c3         1 R30      -0.098400
     11 C11         -0.3410     2.1670     9.2510 c3         1 R30       0.020900
     12 O12          0.5820     1.8770     6.7820 o          1 R30      -0.631100
     13 C13          1.2030     0.3460     4.7640 ca         1 R30      -0.090500
     14 C14          1.8900     0.2390     3.5710 ca         1 R30      -0.149500
     15 C15          3.3480    -0.1090     1.1690 c3         1 R30       0.092300
     16 C16          3.9560     1.2700     1.1550 cc         1 R30      -0.168300
     17 C17          4.1770     1.9680     2.2700 cd         1 R30       0.022900
     18 S18          4.8900     3.5220     1.8610 ss         1 R30      -0.248800
     19 C19          4.8480     3.1250     0.1480 cd         1 R30       0.021900
     20 C20          4.3310     1.9060    -0.0150 cc         1 R30      -0.138000
     21 C21          1.9670    -0.0060    -1.3050 c3         1 R30      -0.093700
     22 N22          1.0150     0.0300    -2.4190 na         1 R30       0.479900
     23 N23          0.4990     1.1740    -3.0460 nc         1 R30      -0.315400
     24 N24         -0.3090     0.8210    -3.9820 nd         1 R30      -0.125400
     25 C25         -0.3900    -0.5220    -4.0490 ca         1 R30      -0.008600
     26 C26          0.4560    -1.0510    -3.0580 ca         1 R30      -0.210200
     27 C27          0.5700    -2.4280    -2.9070 ca         1 R30      -0.106000
     28 C28         -0.1380    -3.2630    -3.7250 ca         1 R30      -0.056000
     29 C29         -0.9720    -2.7470    -4.7090 ca         1 R30      -0.134000
     30 C30         -1.1090    -1.4000    -4.8720 ca         1 R30      -0.007000
     31 H051        -0.7410    -0.0420     1.4550 ha         1 R30       0.159000
     32 H061        -1.9660     0.1410     3.5870 ha         1 R30       0.121500
     33 H081        -1.7890     0.0010     6.0720 hn         1 R30       0.167500
     34 H101        -2.1060     1.5430     8.1960 hc         1 R30       0.025200
     35 H102        -1.0740     0.2130     8.7400 hc         1 R30       0.025200
     36 H111         0.6650     1.8030     9.4170 hc         1 R30       0.009700
     37 H112        -0.3000     3.1520     8.8010 hc         1 R30       0.009700
     38 H113        -0.8650     2.2250    10.1980 hc         1 R30       0.009700
     39 H131         1.7480     0.4530     5.6950 ha         1 R30       0.121500
     40 H141         2.9730     0.2680     3.5640 ha         1 R30       0.159000
     41 H151         3.6700    -0.6550     0.2900 h1         1 R30       0.037700
     42 H152         3.6700    -0.6370     2.0590 h1         1 R30       0.037700
     43 H171         3.9510     1.6290     3.2740 h4         1 R30       0.167000
     44 H191         5.1940     3.7690    -0.6510 h4         1 R30       0.152000
     45 H201         4.2080     1.4520    -0.9910 ha         1 R30       0.123000
     46 H211         2.5660    -0.9060    -1.3720 h1         1 R30       0.060700
     47 H212         2.6120     0.8630    -1.3540 h1         1 R30       0.060700
     48 H271         1.2190    -2.8390    -2.1430 ha         1 R30       0.102000
     49 H281        -0.0420    -4.3360    -3.6110 ha         1 R30       0.103000
     50 H291        -1.5270    -3.4230    -5.3490 ha         1 R30       0.108000
     51 H301        -1.7630    -1.0090    -5.6430 ha         1 R30       0.112000
@<TRIPOS>BOND
     1     1     2 2   
     2     2     3 1   
     3     2    21 1   
     4     3     4 1   
     5     3    15 1   
     6     4     5 ar  
     7     4    14 ar  
     8     5     6 ar  
     9     5    31 1   
    10     6     7 ar  
    11     6    32 1   
    12     7     8 1   
    13     7    13 ar  
    14     8     9 1   
    15     8    33 1   
    16     9    10 1   
    17     9    12 2   
    18    10    11 1   
    19    10    34 1   
    20    10    35 1   
    21    11    36 1   
    22    11    37 1   
    23    11    38 1   
    24    13    14 ar  
    25    13    39 1   
    26    14    40 1   
    27    15    16 1   
    28    15    41 1   
    29    15    42 1   
    30    16    17 2   
    31    16    20 1   
    32    17    18 1   
    33    17    43 1   
    34    18    19 1   
    35    19    20 2   
    36    19    44 1   
    37    20    45 1   
    38    21    22 1   
    39    21    46 1   
    40    21    47 1   
    41    22    23 1   
    42    22    26 1   
    43    23    24 2   
    44    24    25 1   
    45    25    26 ar  
    46    25    30 ar  
    47    26    27 ar  
    48    27    28 ar  
    49    27    48 1   
    50    28    29 ar  
    51    28    49 1   
    52    29    30 ar  
    53    29    50 1   
    54    30    51 1   
@<TRIPOS>SUBSTRUCTURE
     1 R30         1 TEMP              0 ****  ****    0 ROOT
