@<TRIPOS>MOLECULE
molecule
   88    89     1     0     0
SMALL
bcc


@<TRIPOS>ATOM
      1 C1           0.0000     0.0000     0.0000 c3         1 R31       0.074800
      2 N2           1.4680     0.0000     0.0000 n3         1 R31      -0.762600
      3 C3           1.9760     0.0000     1.3810 c3         1 R31       0.142800
      4 C4           1.6590    -1.3520     2.0210 c3         1 R31       0.115000
      5 N5           0.2490    -1.6800     1.8250 n          1 R31      -0.371000
      6 C6          -0.5110    -1.0870     0.9030 c          1 R31       0.701500
      7 C7          -0.3300    -2.6590     2.6440 ca         1 R31      -0.009400
      8 C8          -0.3100    -3.9960     2.2530 ca         1 R31       0.157100
      9 C9          -0.8850    -4.9610     3.0660 ca         1 R31      -0.211000
     10 C10         -1.4750    -4.5940     4.2610 ca         1 R31      -0.066000
     11 C11         -1.4950    -3.2680     4.6490 ca         1 R31      -0.153000
     12 C12         -0.9190    -2.3010     3.8480 ca         1 R31      -0.078000
     13 O13          0.2700    -4.3540     1.0770 os         1 R31      -0.339900
     14 C14          0.2530    -5.7430     0.7410 c3         1 R31       0.136400
     15 C15          0.9460    -5.9510    -0.6070 c3         1 R31      -0.082400
     16 C16          0.9280    -7.4380    -0.9670 c3         1 R31       0.141400
     17 O17          1.5760    -7.6310    -2.2250 os         1 R31      -0.439600
     18 C18          1.6140    -8.9940    -2.6560 c3         1 R31       0.129700
     19 C19          1.9950     1.1470    -0.7530 c3         1 R31       0.125800
     20 C20          1.6310     0.9950    -2.2320 c3         1 R31       0.091500
     21 C21          2.2840     2.1210    -3.0360 c3         1 R31       0.115100
     22 N22          2.1150    -0.3020    -2.7240 nz         1 R31      -0.798600
     23 C23          1.9210     1.9690    -4.5150 c3         1 R31      -0.084400
     24 O24          3.7030     2.0540    -2.8860 oh         1 R31      -0.607800
     25 C25          2.4310     3.1830    -5.2930 c3         1 R31      -0.132700
     26 C26          1.9270     3.1190    -6.7110 c          1 R31       0.674100
     27 N27          2.0590     4.1870    -7.5230 ns         1 R31      -0.596900
     28 O28          1.4030     2.1060    -7.1230 o          1 R31      -0.591100
     29 C29          3.9600     3.1820    -5.2940 c3         1 R31      -0.079700
     30 C30          1.4670     4.1670    -8.8630 c3         1 R31       0.134000
     31 C31          1.7620     5.4920    -9.5700 c3         1 R31      -0.169000
     32 C32          1.1530     5.4710   -10.9490 c          1 R31       0.493100
     33 N33          1.2850     6.5390   -11.7600 nz         1 R31      -0.683400
     34 C34          1.1600     6.6440    -8.7650 c3         1 R31      -0.098600
     35 C35          3.2750     5.6840    -9.6840 c3         1 R31      -0.098600
     36 O36          0.5440     4.4930   -11.3270 o          1 R31      -0.382100
     37 C37          4.4690     1.8980    -5.9500 c3         1 R31      -0.094100
     38 C38          4.4710     4.3920    -6.0790 c3         1 R31      -0.094100
     39 O39         -1.6650    -1.4410     0.7860 o          1 R31      -0.602500
     40 H1          -0.3580     0.9590     0.3550 h1         1 R31       0.063700
     41 H2          -0.3580    -0.1730    -1.0080 h1         1 R31       0.063700
     42 H4           1.4930     0.7890     1.9450 h1         1 R31       0.060200
     43 H5           3.0480     0.1550     1.3740 h1         1 R31       0.060200
     44 H6           2.2710    -2.1180     1.5600 h1         1 R31       0.069700
     45 H7           1.8710    -1.3050     3.0820 h1         1 R31       0.069700
     46 H8          -0.8710    -6.0010     2.7650 ha         1 R31       0.146000
     47 H9          -1.9260    -5.3490     4.8940 ha         1 R31       0.146000
     48 H10         -1.9570    -2.9860     5.5880 ha         1 R31       0.147000
     49 H11         -0.9360    -1.2620     4.1550 ha         1 R31       0.140000
     50 H12         -0.7730    -6.0860     0.6750 h1         1 R31       0.045700
     51 H13          0.7730    -6.3060     1.5050 h1         1 R31       0.045700
     52 H14          1.9720    -5.6070    -0.5420 hc         1 R31       0.055200
     53 H15          0.4250    -5.3870    -1.3720 hc         1 R31       0.055200
     54 H16          1.4490    -8.0010    -0.2020 h1         1 R31       0.031700
     55 H17         -0.0970    -7.7810    -1.0320 h1         1 R31       0.031700
     56 H18          2.0890    -9.0520    -3.6280 h1         1 R31       0.037033
     57 H19          0.6040    -9.3790    -2.7240 h1         1 R31       0.037033
     58 H20          2.1780    -9.5820    -1.9430 h1         1 R31       0.037033
     59 H21          3.0720     1.1840    -0.6480 h1         1 R31       0.076200
     60 H22          1.5620     2.0620    -0.3670 h1         1 R31       0.076200
     61 H23          0.5550     1.0460    -2.3470 hx         1 R31       0.119700
     62 H24          1.9270     3.0770    -2.6730 h1         1 R31       0.084700
     63 H25          1.7700    -1.0330    -2.1330 hn         1 R31       0.465133
     64 H26          3.1150    -0.3100    -2.7160 hn         1 R31       0.465133
     65 H28          2.3780     1.0700    -4.9090 hc         1 R31       0.071200
     66 H29          0.8440     1.9010    -4.6170 hc         1 R31       0.071200
     67 H30          3.9890     2.7320    -2.2960 ho         1 R31       0.437000
     68 H31          2.0710     4.0910    -4.8230 hc         1 R31       0.068700
     69 H32          2.5270     5.0090    -7.1950 hn         1 R31       0.325500
     70 H33          4.3220     3.2350    -4.2740 hc         1 R31       0.079700
     71 H34          0.3960     4.0310    -8.7830 h1         1 R31       0.081700
     72 H35          1.8930     3.3510    -9.4340 h1         1 R31       0.081700
     73 H36          0.3790     6.8810   -12.0120 hn         1 R31       0.483467
     74 H37          1.7920     7.2590   -11.2830 hn         1 R31       0.483467
     75 H38          1.6050     6.6660    -7.7770 hc         1 R31       0.062867
     76 H39          1.3590     7.5810    -9.2710 hc         1 R31       0.062867
     77 H40          0.0900     6.5020    -8.6750 hc         1 R31       0.062867
     78 H41          3.6560     6.1070    -8.7620 hc         1 R31       0.062867
     79 H42          3.4930     6.3540   -10.5060 hc         1 R31       0.062867
     80 H43          3.7470     4.7260    -9.8640 hc         1 R31       0.062867
     81 H44          3.9930     1.7720    -6.9150 hc         1 R31       0.042700
     82 H45          4.2330     1.0500    -5.3180 hc         1 R31       0.042700
     83 H46          5.5430     1.9610    -6.0820 hc         1 R31       0.042700
     84 H47          3.8580     5.2560    -5.8510 hc         1 R31       0.042700
     85 H48          5.4980     4.5950    -5.8000 hc         1 R31       0.042700
     86 H49          4.4200     4.1820    -7.1400 hc         1 R31       0.042700
     87 H223         1.7800    -0.4510    -3.6550 hn         1 R31       0.465133
     88 H333         1.7800     6.2710   -12.5870 hn         1 R31       0.483467
@<TRIPOS>BOND
     1    18    17 1
     2    17    16 1
     3    16    15 1
     4    14    15 1
     5    14    13 1
     6     9    10 ar
     7     9     8 ar
     8    10    11 ar
     9    13     8 1
    10     8     7 ar
    11    11    12 ar
    12    12     7 ar
    13     7     5 1
    14     4     5 1
    15     4     3 1
    16     5     6 1
    17     3     2 1
    18     6    39 2
    19     6     1 1
    20     2     1 1
    21     2    19 1
    22    19    20 1
    23    22    20 1
    24    20    21 1
    25    24    21 1
    26    21    23 1
    27    23    25 1
    28    38    29 1
    29    25    29 1
    30    25    26 1
    31    29    37 1
    32    26    27 1
    33    26    28 2
    34    27    30 1
    35    30    31 1
    36    33    32 1
    37    31    32 1
    38    31    35 1
    39    31    34 1
    40    32    36 2
    41     1    40 1
    42     1    41 1
    43     3    42 1
    44     3    43 1
    45     4    44 1
    46     4    45 1
    47     9    46 1
    48    10    47 1
    49    11    48 1
    50    12    49 1
    51    14    50 1
    52    14    51 1
    53    15    52 1
    54    15    53 1
    55    16    54 1
    56    16    55 1
    57    18    56 1
    58    18    57 1
    59    18    58 1
    60    19    59 1
    61    19    60 1
    62    20    61 1
    63    21    62 1
    64    22    63 1
    65    22    64 1
    66    23    65 1
    67    23    66 1
    68    24    67 1
    69    25    68 1
    70    27    69 1
    71    29    70 1
    72    30    71 1
    73    30    72 1
    74    33    73 1
    75    33    74 1
    76    34    75 1
    77    34    76 1
    78    34    77 1
    79    35    78 1
    80    35    79 1
    81    35    80 1
    82    37    81 1
    83    37    82 1
    84    37    83 1
    85    38    84 1
    86    38    85 1
    87    38    86 1
    88    87    22 1
    89    88    33 1
@<TRIPOS>SUBSTRUCTURE
     1 R31         1 TEMP              0 ****  ****    0 ROOT
