@<TRIPOS>MOLECULE
R31
   88    89     1     0     0
SMALL
bcc


@<TRIPOS>ATOM
      1 C1           0.0000     0.0000     0.0000 c3         1 R31       0.075800
      2 N2           1.4680     0.0000     0.0000 n3         1 R31      -0.583600
      3 C3           1.9760     0.0000     1.3810 c3         1 R31       0.149800
      4 C4           1.6590    -1.3520     2.0210 c3         1 R31       0.043000
      5 N5           0.2490    -1.6800     1.8250 n          1 R31       0.027000
      6 C6          -0.5110    -1.0870     0.9030 c          1 R31       0.599500
      7 C7          -0.3300    -2.6590     2.6440 ca         1 R31      -0.155400
      8 C8          -0.3100    -3.9960     2.2530 ca         1 R31       0.175100
      9 C9          -0.8850    -4.9610     3.0660 ca         1 R31      -0.200000
     10 C10         -1.4750    -4.5940     4.2610 ca         1 R31      -0.022000
     11 C11         -1.4950    -3.2680     4.6490 ca         1 R31      -0.128000
     12 C12         -0.9190    -2.3010     3.8480 ca         1 R31      -0.039000
     13 O13          0.2700    -4.3540     1.0770 os         1 R31      -0.322900
     14 C14          0.2530    -5.7430     0.7410 c3         1 R31       0.205400
     15 C15          0.9460    -5.9510    -0.6070 c3         1 R31      -0.040400
     16 C16          0.9280    -7.4380    -0.9670 c3         1 R31       0.218400
     17 O17          1.5760    -7.6310    -2.2250 os         1 R31      -0.429600
     18 C18          1.6140    -8.9940    -2.6560 c3         1 R31       0.256700
     19 C19          1.9950     1.1470    -0.7530 c3         1 R31       0.134800
     20 C20          1.6310     0.9950    -2.2320 c3         1 R31      -0.100500
     21 C21          2.2840     2.1210    -3.0360 c3         1 R31       0.171100
     22 N22          2.1150    -0.3020    -2.7240 nz         1 R31       0.068400
     23 C23          1.9210     1.9690    -4.5150 c3         1 R31      -0.046400
     24 O24          3.7030     2.0540    -2.8860 oh         1 R31      -0.589800
     25 C25          2.4310     3.1830    -5.2930 c3         1 R31      -0.103700
     26 C26          1.9270     3.1190    -6.7110 c          1 R31       0.593100
     27 N27          2.0590     4.1870    -7.5230 ns         1 R31      -0.234900
     28 O28          1.4030     2.1060    -7.1230 o          1 R31      -0.628100
     29 C29          3.9600     3.1820    -5.2940 c3         1 R31      -0.071700
     30 C30          1.4670     4.1670    -8.8630 c3         1 R31       0.074000
     31 C31          1.7620     5.4920    -9.5700 c3         1 R31      -0.166000
     32 C32          1.1530     5.4710   -10.9490 c          1 R31       0.326100
     33 N33          1.2850     6.5390   -11.7600 nz         1 R31       0.193600
     34 C34          1.1600     6.6440    -8.7650 c3         1 R31       0.001900
     35 C35          3.2750     5.6840    -9.6840 c3         1 R31       0.001900
     36 O36          0.5440     4.4930   -11.3270 o          1 R31      -0.380100
     37 C37          4.4690     1.8980    -5.9500 c3         1 R31      -0.003600
     38 C38          4.4710     4.3920    -6.0790 c3         1 R31      -0.003600
     39 O39         -1.6650    -1.4410     0.7860 o          1 R31      -0.647500
     40 H1          -0.3580     0.9590     0.3550 h1         1 R31       0.031700
     41 H2          -0.3580    -0.1730    -1.0080 h1         1 R31       0.031700
     42 H4           1.4930     0.7890     1.9450 h1         1 R31       0.029700
     43 H5           3.0480     0.1550     1.3740 h1         1 R31       0.029700
     44 H6           2.2710    -2.1180     1.5600 h1         1 R31       0.038200
     45 H7           1.8710    -1.3050     3.0820 h1         1 R31       0.038200
     46 H8          -0.8710    -6.0010     2.7650 ha         1 R31       0.128000
     47 H9          -1.9260    -5.3490     4.8940 ha         1 R31       0.112000
     48 H10         -1.9570    -2.9860     5.5880 ha         1 R31       0.118000
     49 H11         -0.9360    -1.2620     4.1550 ha         1 R31       0.106000
     50 H12         -0.7730    -6.0860     0.6750 h1         1 R31       0.011700
     51 H13          0.7730    -6.3060     1.5050 h1         1 R31       0.011700
     52 H14          1.9720    -5.6070    -0.5420 hc         1 R31       0.020700
     53 H15          0.4250    -5.3870    -1.3720 hc         1 R31       0.020700
     54 H16          1.4490    -8.0010    -0.2020 h1         1 R31      -0.003300
     55 H17         -0.0970    -7.7810    -1.0320 h1         1 R31      -0.003300
     56 H18          2.0890    -9.0520    -3.6280 h1         1 R31      -0.007633
     57 H19          0.6040    -9.3790    -2.7240 h1         1 R31      -0.007633
     58 H20          2.1780    -9.5820    -1.9430 h1         1 R31      -0.007633
     59 H21          3.0720     1.1840    -0.6480 h1         1 R31       0.047200
     60 H22          1.5620     2.0620    -0.3670 h1         1 R31       0.047200
     61 H23          0.5550     1.0460    -2.3470 hx         1 R31       0.102700
     62 H24          1.9270     3.0770    -2.6730 h1         1 R31       0.046700
     63 H25          1.7700    -1.0330    -2.1330 hn         1 R31       0.236800
     64 H26          3.1150    -0.3100    -2.7160 hn         1 R31       0.236800
     65 H28          2.3780     1.0700    -4.9090 hc         1 R31       0.045200
     66 H29          0.8440     1.9010    -4.6170 hc         1 R31       0.045200
     67 H30          3.9890     2.7320    -2.2960 ho         1 R31       0.430000
     68 H31          2.0710     4.0910    -4.8230 hc         1 R31       0.041700
     69 H32          2.5270     5.0090    -7.1950 hn         1 R31       0.202500
     70 H33          4.3220     3.2350    -4.2740 hc         1 R31       0.059700
     71 H34          0.3960     4.0310    -8.7830 h1         1 R31       0.050700
     72 H35          1.8930     3.3510    -9.4340 h1         1 R31       0.050700
     73 H36          0.3790     6.8810   -12.0120 hn         1 R31       0.254133
     74 H37          1.7920     7.2590   -11.2830 hn         1 R31       0.254133
     75 H38          1.6050     6.6660    -7.7770 hc         1 R31       0.027700
     76 H39          1.3590     7.5810    -9.2710 hc         1 R31       0.027700
     77 H40          0.0900     6.5020    -8.6750 hc         1 R31       0.027700
     78 H41          3.6560     6.1070    -8.7620 hc         1 R31       0.027700
     79 H42          3.4930     6.3540   -10.5060 hc         1 R31       0.027700
     80 H43          3.7470     4.7260    -9.8640 hc         1 R31       0.027700
     81 H44          3.9930     1.7720    -6.9150 hc         1 R31       0.012200
     82 H45          4.2330     1.0500    -5.3180 hc         1 R31       0.012200
     83 H46          5.5430     1.9610    -6.0820 hc         1 R31       0.012200
     84 H47          3.8580     5.2560    -5.8510 hc         1 R31       0.012200
     85 H48          5.4980     4.5950    -5.8000 hc         1 R31       0.012200
     86 H49          4.4200     4.1820    -7.1400 hc         1 R31       0.012200
     87 H223         1.7800    -0.4510    -3.6550 hn         1 R31       0.236800
     88 H333         1.7800     6.2710   -12.5870 hn         1 R31       0.254133
@<TRIPOS>BOND
     1     1     2 1   
     2     1     6 1   
     3     1    40 1   
     4     1    41 1   
     5     2     3 1   
     6     2    19 1   
     7     3     4 1   
     8     3    42 1   
     9     3    43 1   
    10     4     5 1   
    11     4    44 1   
    12     4    45 1   
    13     5     6 1   
    14     5     7 1   
    15     6    39 2   
    16     7     8 ar  
    17     7    12 ar  
    18     8     9 ar  
    19     8    13 1   
    20     9    10 ar  
    21     9    46 1   
    22    10    11 ar  
    23    10    47 1   
    24    11    12 ar  
    25    11    48 1   
    26    12    49 1   
    27    13    14 1   
    28    14    15 1   
    29    14    50 1   
    30    14    51 1   
    31    15    16 1   
    32    15    52 1   
    33    15    53 1   
    34    16    17 1   
    35    16    54 1   
    36    16    55 1   
    37    17    18 1   
    38    18    56 1   
    39    18    57 1   
    40    18    58 1   
    41    19    20 1   
    42    19    59 1   
    43    19    60 1   
    44    20    21 1   
    45    20    22 1   
    46    20    61 1   
    47    21    23 1   
    48    21    24 1   
    49    21    62 1   
    50    22    63 1   
    51    22    64 1   
    52    22    87 1   
    53    23    25 1   
    54    23    65 1   
    55    23    66 1   
    56    24    67 1   
    57    25    26 1   
    58    25    29 1   
    59    25    68 1   
    60    26    27 1   
    61    26    28 2   
    62    27    30 1   
    63    27    69 1   
    64    29    37 1   
    65    29    38 1   
    66    29    70 1   
    67    30    31 1   
    68    30    71 1   
    69    30    72 1   
    70    31    32 1   
    71    31    34 1   
    72    31    35 1   
    73    32    33 1   
    74    32    36 2   
    75    33    73 1   
    76    33    74 1   
    77    33    88 1   
    78    34    75 1   
    79    34    76 1   
    80    34    77 1   
    81    35    78 1   
    82    35    79 1   
    83    35    80 1   
    84    37    81 1   
    85    37    82 1   
    86    37    83 1   
    87    38    84 1   
    88    38    85 1   
    89    38    86 1   
@<TRIPOS>SUBSTRUCTURE
     1 R31         1 TEMP              0 ****  ****    0 ROOT
