@<TRIPOS>MOLECULE
molecule
   80    81     1     0     0
SMALL
bcc


@<TRIPOS>ATOM
      1 C1           0.0000     0.0000     0.0000 ca         1 R32      -0.106000
      2 C2           1.3880     0.0000     0.0000 ca         1 R32       0.028600
      3 C3           2.0800     0.0000     1.2060 ca         1 R32       0.039400
      4 C4           1.3830    -0.0010     2.4000 ca         1 R32      -0.108000
      5 C5           0.0000     0.0000     2.3950 ca         1 R32      -0.096000
      6 C6          -0.6900     0.0000     1.1960 ca         1 R32      -0.116000
      7 N7           2.0900    -0.0000    -1.2110 n          1 R32      -0.384000
      8 Cl1          3.8150    -0.0000     1.2130 cl         1 R32      -0.103400
      9 C9           2.4340    -1.2840    -1.8170 c3         1 R32       0.127000
     10 C10          3.5450    -1.0930    -2.8520 c3         1 R32       0.155200
     11 N11          3.1640     0.0010    -3.7590 n3         1 R32      -0.756600
     12 C12          3.1890     1.2840    -3.0440 c3         1 R32       0.071800
     13 C13          2.4110     1.1740    -1.7630 c          1 R32       0.700500
     14 O14          2.0550     2.1930    -1.2100 o          1 R32      -0.599500
     15 C15          3.7270    -2.3840    -3.6530 c3         1 R32      -0.108600
     16 C16          4.8530    -0.7380    -2.1410 c3         1 R32      -0.108600
     17 C17          4.0400     0.0380    -4.9380 c3         1 R32       0.120800
     18 C18          3.5450     1.1120    -5.9080 c3         1 R32       0.087500
     19 C19          4.3800     1.0650    -7.1890 c3         1 R32       0.116100
     20 C20          3.8850     2.1390    -8.1600 c3         1 R32      -0.084400
     21 C21          4.8450     2.2350    -9.3470 c3         1 R32      -0.132700
     22 C22          4.4850     3.4330   -10.1890 c          1 R32       0.674100
     23 N23          5.3490     3.8860   -11.1190 ns         1 R32      -0.594900
     24 C24          5.0710     5.1390   -11.8260 c3         1 R32       0.134000
     25 C25          6.1990     5.4250   -12.8190 c3         1 R32      -0.170000
     26 N26          2.1340     0.8640    -6.2350 nz         1 R32      -0.798600
     27 O27          4.2510    -0.2210    -7.7960 oh         1 R32      -0.606800
     28 C28          4.7360     0.9650   -10.1940 c3         1 R32      -0.082700
     29 O29          3.4180     3.9870   -10.0290 o          1 R32      -0.591100
     30 C30          3.3340     0.8760   -10.8020 c3         1 R32      -0.092600
     31 C31          5.7750     1.0110   -11.3160 c3         1 R32      -0.092600
     32 C32          5.9140     6.7130   -13.5470 c          1 R32       0.494100
     33 C33          7.5240     5.5480   -12.0650 c3         1 R32      -0.098100
     34 C34          6.2920     4.2780   -13.8290 c3         1 R32      -0.098100
     35 N35          6.7770     7.1670   -14.4770 nz         1 R32      -0.683400
     36 O36          4.9070     7.3410   -13.2970 o          1 R32      -0.383100
     37 H1          -0.5420     0.0000    -0.9380 ha         1 R32       0.136000
     38 H2           1.9210    -0.0010     3.3400 ha         1 R32       0.160000
     39 H3          -0.5430    -0.0000     3.3320 ha         1 R32       0.153000
     40 H4          -1.7740     0.0000     1.1960 ha         1 R32       0.148000
     41 H5           2.7760    -1.9640    -1.0460 h1         1 R32       0.069200
     42 H6           1.5590    -1.6960    -2.3040 h1         1 R32       0.069200
     43 H8           4.2150     1.5470    -2.8180 h1         1 R32       0.064200
     44 H9           2.7450     2.0500    -3.6680 h1         1 R32       0.064200
     45 H10          3.7760    -3.2260    -2.9740 hc         1 R32       0.054200
     46 H11          2.8880    -2.5120    -4.3260 hc         1 R32       0.054200
     47 H12          4.6450    -2.3280    -4.2260 hc         1 R32       0.054200
     48 H13          4.7280     0.1900    -1.5970 hc         1 R32       0.054200
     49 H14          5.6430    -0.6240    -2.8740 hc         1 R32       0.054200
     50 H15          5.1140    -1.5300    -1.4500 hc         1 R32       0.054200
     51 H16          5.0520     0.2690    -4.6290 h1         1 R32       0.080700
     52 H17          4.0240    -0.9280    -5.4290 h1         1 R32       0.080700
     53 H18          3.6430     2.0870    -5.4480 hx         1 R32       0.119700
     54 H19          5.4210     1.2480    -6.9480 h1         1 R32       0.084700
     55 H20          2.8960     1.8770    -8.5150 hc         1 R32       0.070700
     56 H21          3.8440     3.0950    -7.6510 hc         1 R32       0.070700
     57 H22          5.8590     2.3410    -8.9830 hc         1 R32       0.067700
     58 H23          6.2080     3.4000   -11.2820 hn         1 R32       0.324500
     59 H24          5.0050     5.9510   -11.1120 h1         1 R32       0.081200
     60 H25          4.1330     5.0520   -12.3610 h1         1 R32       0.081200
     61 H26          2.0530    -0.0040    -6.7270 hn         1 R32       0.463800
     62 H27          1.5990     0.8190    -5.3900 hn         1 R32       0.463800
     63 H29          5.0130    -0.7410    -7.5970 ho         1 R32       0.436000
     64 H30          4.9160     0.0980    -9.5700 hc         1 R32       0.082700
     65 H31          3.2900     0.0370   -11.4860 hc         1 R32       0.042867
     66 H32          2.6060     0.7360   -10.0120 hc         1 R32       0.042867
     67 H33          3.1140     1.7910   -11.3380 hc         1 R32       0.042867
     68 H34          5.3510     1.5040   -12.1820 hc         1 R32       0.042867
     69 H35          6.6470     1.5590   -10.9800 hc         1 R32       0.042867
     70 H36          6.0640     0.0010   -11.5820 hc         1 R32       0.042867
     71 H37          8.0470     4.6000   -12.0950 hc         1 R32       0.063033
     72 H38          8.1350     6.3120   -12.5310 hc         1 R32       0.063033
     73 H39          7.3290     5.8210   -11.0350 hc         1 R32       0.063033
     74 H40          5.2950     3.9700   -14.1180 hc         1 R32       0.063033
     75 H41          6.8120     3.4420   -13.3790 hc         1 R32       0.063033
     76 H42          6.8350     4.6120   -14.7050 hc         1 R32       0.063033
     77 H43          7.0490     8.1040   -14.2510 hn         1 R32       0.483800
     78 H44          7.5870     6.5800   -14.4960 hn         1 R32       0.483800
     79 H263         1.7910     1.6020    -6.8160 hn         1 R32       0.463800
     80 H353         6.3330     7.1640   -15.3740 hn         1 R32       0.483800
@<TRIPOS>BOND
     1    35    32 1
     2    36    32 2
     3    32    25 1
     4    33    25 1
     5    25    34 1
     6    25    24 1
     7    24    23 1
     8    23    22 1
     9    27    19 1
    10    15    10 1
    11    22    21 1
    12    22    29 2
    13    19    18 1
    14    19    20 1
    15    31    28 1
    16    21    28 1
    17    21    20 1
    18    17    18 1
    19    17    11 1
    20    16    10 1
    21    10    11 1
    22    10     9 1
    23    26    18 1
    24    28    30 1
    25    11    12 1
    26     9     7 1
    27    12    13 1
    28     7    13 1
    29     7     2 1
    30    13    14 2
    31     8     3 1
    32     2     3 ar
    33     2     1 ar
    34     3     4 ar
    35     1     6 ar
    36     4     5 ar
    37     6     5 ar
    38     1    37 1
    39     4    38 1
    40     5    39 1
    41     6    40 1
    42     9    41 1
    43     9    42 1
    44    12    43 1
    45    12    44 1
    46    15    45 1
    47    15    46 1
    48    15    47 1
    49    16    48 1
    50    16    49 1
    51    16    50 1
    52    17    51 1
    53    17    52 1
    54    18    53 1
    55    19    54 1
    56    20    55 1
    57    20    56 1
    58    21    57 1
    59    23    58 1
    60    24    59 1
    61    24    60 1
    62    26    61 1
    63    26    62 1
    64    27    63 1
    65    28    64 1
    66    30    65 1
    67    30    66 1
    68    30    67 1
    69    31    68 1
    70    31    69 1
    71    31    70 1
    72    33    71 1
    73    33    72 1
    74    33    73 1
    75    34    74 1
    76    34    75 1
    77    34    76 1
    78    35    77 1
    79    35    78 1
    80    79    26 1
    81    80    35 1
@<TRIPOS>SUBSTRUCTURE
     1 R32         1 TEMP              0 ****  ****    0 ROOT
