@<TRIPOS>MOLECULE
molecule
   37    36     1     0     0
SMALL
bcc


@<TRIPOS>ATOM
      1 C02          0.0000     0.0000     0.0000 c          1 R33       0.548100
      2 C03          1.5070     0.0000     0.0000 c3         1 R33      -0.190100
      3 C04         -0.7530     0.0000     1.3060 c3         1 R33       0.071700
      4 C05         -0.6900    -1.3950     1.9320 c3         1 R33      -0.216400
      5 C06         -1.3450    -1.3650     3.3130 c3         1 R33      -0.069400
      6 C07         -1.2820    -2.7600     3.9380 c3         1 R33       0.252800
      7 C09         -1.9730    -3.8770     6.0180 c2         1 R33       0.687100
      8 C14         -3.9480     2.0350     0.7560 c3         1 R33       0.015800
      9 N08         -1.9100    -2.7310     5.2610 nu         1 R33      -0.868200
     10 N10         -2.5620    -3.8500     7.2590 nz         1 R33      -0.806600
     11 N11         -1.4730    -4.9900     5.5580 n2         1 R33      -0.766100
     12 N12         -2.1500     0.3630     1.0630 ns         1 R33      -0.538900
     13 N15         -4.0780     3.4990     0.7370 nz         1 R33      -0.794600
     14 O01         -0.6040     0.0050    -1.0450 o          1 R33      -0.483100
     15 O16         -1.6750     2.5280     1.1540 o          1 R33      -0.596100
     16 H1           1.8680     0.5630     0.8520 hc         1 R33       0.078700
     17 H2           1.8680    -1.0190     0.0620 hc         1 R33       0.078700
     18 H3           1.8680     0.4560    -0.9140 hc         1 R33       0.078700
     19 H4          -0.3060     0.7190     1.9810 h1         1 R33       0.081700
     20 H5          -0.1490    -0.5710     2.3810 hc         1 R33       0.112200
     21 H6           0.1020    -2.0990     1.7060 hc         1 R33       0.112200
     22 H7          -2.3800    -1.0600     3.2150 hc         1 R33       0.041700
     23 H8          -0.8200    -0.6610     3.9470 hc         1 R33       0.041700
     24 H9          -1.8080    -3.4640     3.3040 h1         1 R33       0.083700
     25 H10         -0.2480    -3.0650     4.0360 h1         1 R33       0.083700
     26 H11         -4.2790     1.6310    -0.1940 hx         1 R33       0.127200
     27 H12         -4.5580     1.6280     1.5530 hx         1 R33       0.127200
     28 H13         -2.2930    -1.8770     5.6150 hn         1 R33       0.449800
     29 H14         -3.2460    -3.1200     7.2880 hn         1 R33       0.470800
     30 H15         -3.0060    -4.7290     7.4380 hn         1 R33       0.470800
     31 H16         -1.5180    -5.8250     6.1080 hn         1 R33       0.450400
     32 H17         -2.8340    -0.3520     0.9110 hn         1 R33       0.343500
     33 H18         -3.6340     3.8630    -0.0820 hn         1 R33       0.470467
     34 H19         -3.6410     3.8820     1.5520 hn         1 R33       0.470467
     35 C13         -2.5100     1.6610     1.0050 c          1 R33       0.637100
     36 H103        -1.8630    -3.6910     7.9580 hn         1 R33       0.470800
     37 H153        -5.0470     3.7470     0.7270 hn         1 R33       0.470467
@<TRIPOS>BOND
     1    11     7 2
     2    10     7 1
     3     7     9 1
     4     9     6 1
     5     6     5 1
     6     8    13 1
     7     8    35 1
     8     5     4 1
     9    12    35 1
    10    12     3 1
    11    35    15 2
    12     4     3 1
    13     3     1 1
    14     2     1 1
    15     1    14 2
    16     2    16 1
    17     2    17 1
    18     2    18 1
    19     3    19 1
    20     4    20 1
    21     4    21 1
    22     5    22 1
    23     5    23 1
    24     6    24 1
    25     6    25 1
    26     8    26 1
    27     8    27 1
    28     9    28 1
    29    10    29 1
    30    10    30 1
    31    11    31 1
    32    12    32 1
    33    13    33 1
    34    13    34 1
    35    36    10 1
    36    37    13 1
@<TRIPOS>SUBSTRUCTURE
     1 R33         1 TEMP              0 ****  ****    0 ROOT
