@<TRIPOS>MOLECULE
R33
   37    36     1     0     0
SMALL
bcc


@<TRIPOS>ATOM
      1 C02          0.0000     0.0000     0.0000 c          1 R33       0.584100
      2 C03          1.5070     0.0000     0.0000 c3         1 R33      -0.079100
      3 C04         -0.7530     0.0000     1.3060 c3         1 R33      -0.006300
      4 C05         -0.6900    -1.3950     1.9320 c3         1 R33      -0.195400
      5 C06         -1.3450    -1.3650     3.3130 c3         1 R33       0.021600
      6 C07         -1.2820    -2.7600     3.9380 c3         1 R33       0.169800
      7 C09         -1.9730    -3.8770     6.0180 c2         1 R33       0.238100
      8 C14         -3.9480     2.0350     0.7560 c3         1 R33      -0.126200
      9 N08         -1.9100    -2.7310     5.2610 nu         1 R33      -0.504200
     10 N10         -2.5620    -3.8500     7.2590 nz         1 R33       0.204400
     11 N11         -1.4730    -4.9900     5.5580 n2         1 R33      -0.588100
     12 N12         -2.1500     0.3630     1.0630 ns         1 R33      -0.121900
     13 N15         -4.0780     3.4990     0.7370 nz         1 R33       0.114400
     14 O01         -0.6040     0.0050    -1.0450 o          1 R33      -0.518100
     15 O16         -1.6750     2.5280     1.1540 o          1 R33      -0.642100
     16 H1           1.8680     0.4560    -0.9140 hc         1 R33       0.039367
     17 H2           1.8680    -1.0190     0.0620 hc         1 R33       0.039367
     18 H3           1.8680     0.5630     0.8520 hc         1 R33       0.039367
     19 H4          -0.3060     0.7190     1.9810 h1         1 R33       0.060700
     20 H5          -0.1490    -0.5710     2.3810 hc         1 R33       0.085200
     21 H6           0.1020    -2.0990     1.7060 hc         1 R33       0.085200
     22 H7          -0.8200    -0.6610     3.9470 hc         1 R33       0.011700
     23 H8          -2.3800    -1.0600     3.2150 hc         1 R33       0.011700
     24 H9          -0.2480    -3.0650     4.0360 h1         1 R33       0.040200
     25 H10         -1.8080    -3.4640     3.3040 h1         1 R33       0.040200
     26 H11         -4.2610     1.6330    -0.2000 hx         1 R33       0.093700
     27 H12         -4.5720     1.6260     1.5410 hx         1 R33       0.093700
     28 H13         -2.3120    -1.8820     5.6060 hn         1 R33       0.303800
     29 H14         -3.5110    -4.1590     7.1850 hn         1 R33       0.224800
     30 H15         -2.5430    -2.9160     7.6170 hn         1 R33       0.224800
     31 H16         -1.0440    -5.0110     4.6540 hn         1 R33       0.383400
     32 H17         -2.8360    -0.3530     0.9210 hn         1 R33       0.196500
     33 H18         -3.5150     3.8740     0.0000 hn         1 R33       0.231800
     34 H19         -5.0360     3.7460     0.5860 hn         1 R33       0.231800
     35 C13         -2.5100     1.6610     1.0050 c          1 R33       0.553100
     36 H103        -2.0580    -4.4500     7.8820 hn         1 R33       0.224800
     37 H153        -3.7620     3.8720     1.6100 hn         1 R33       0.231800
@<TRIPOS>BOND
     1     1     2 1   
     2     1     3 1   
     3     1    14 2   
     4     2    16 1   
     5     2    17 1   
     6     2    18 1   
     7     3     4 1   
     8     3    12 1   
     9     3    19 1   
    10     4     5 1   
    11     4    20 1   
    12     4    21 1   
    13     5     6 1   
    14     5    22 1   
    15     5    23 1   
    16     6     9 1   
    17     6    24 1   
    18     6    25 1   
    19     7     9 1   
    20     7    10 1   
    21     7    11 2   
    22     8    13 1   
    23     8    26 1   
    24     8    27 1   
    25     8    35 1   
    26     9    28 1   
    27    10    29 1   
    28    10    30 1   
    29    10    36 1   
    30    11    31 1   
    31    12    32 1   
    32    12    35 1   
    33    13    33 1   
    34    13    34 1   
    35    13    37 1   
    36    15    35 2   
@<TRIPOS>SUBSTRUCTURE
     1 R33         1 TEMP              0 ****  ****    0 ROOT
