@<TRIPOS>MOLECULE
molecule
   51    55     1     0     0
SMALL
bcc


@<TRIPOS>ATOM
      1 C6           0.0000     0.0000     0.0000 ca         1 R34      -0.108800
      2 C21          1.3940     0.0000     0.0000 ca         1 R34      -0.049000
      3 C5          -0.7040     0.0010     1.2190 ca         1 R34      -0.029200
      4 N7          -2.0460     0.0010     0.9120 na         1 R34      -0.075400
      5 C4           0.0010     0.0020     2.4200 ca         1 R34      -0.146000
      6 C3           1.3670     0.0010     2.4150 ca         1 R34      -0.089000
      7 C2           2.0750     0.0000     1.2100 cp         1 R34      -0.082000
      8 C1          -3.1340     0.0020     1.8930 c3         1 R34       0.040600
      9 C7           3.5600    -0.0010     1.2240 cp         1 R34      -0.026000
     10 C10          4.2630    -0.9320     0.4510 ca         1 R34       0.041400
     11 C11          5.6410    -0.9400     0.4580 ca         1 R34      -0.118000
     12 C12          6.3370    -0.0230     1.2340 ca         1 R34      -0.090200
     13 C13          5.6400     0.9150     2.0130 ca         1 R34       0.118400
     14 C14          4.2450     0.9240     1.9990 ca         1 R34      -0.067000
     15 N21          7.6820     0.2200     1.4530 na         1 R34      -0.262300
     16 N22          6.5700     1.6700     2.6560 nc         1 R34      -0.656100
     17 C23          7.7680     1.2630     2.3280 cd         1 R34       0.625100
     18 O25          8.9230     1.7970     2.7880 os         1 R34      -0.314700
     19 C26          8.8460     2.8990     3.5800 ca         1 R34       0.097100
     20 C27          8.5140     2.7660     4.9230 ca         1 R34      -0.085000
     21 C28          8.4340     3.8830     5.7330 ca         1 R34      -0.132000
     22 C29          8.6840     5.1380     5.2130 ca         1 R34      -0.003300
     23 C30          9.0180     5.2800     3.8650 ca         1 R34      -0.140600
     24 C31          9.1040     4.1510     3.0500 ca         1 R34      -0.096000
     25 C32          8.5950     6.3520     6.1000 c3         1 R34      -0.048800
     26 Cl1          3.3970    -2.0800    -0.5200 cl         1 R34      -0.094400
     27 C8          -1.0180    -0.0050    -1.0550 cc         1 R34      -0.196200
     28 C9          -2.2130     0.0010    -0.4460 cd         1 R34      -0.100100
     29 C18          9.2860     6.6220     3.3060 c          1 R34       0.691700
     30 N8           9.4900     6.7710     1.9820 ns         1 R34      -0.470400
     31 O20          9.3220     7.5910     4.0380 o          1 R34      -0.576100
     32 O21          9.7460     8.0570     1.4450 oh         1 R34      -0.360100
     33 H1           1.9410    -0.0010    -0.9350 ha         1 R34       0.141000
     34 H2          -0.5350     0.0030     3.3610 ha         1 R34       0.126000
     35 H3           1.9060     0.0010     3.3540 ha         1 R34       0.135000
     36 H4          -3.0600     0.8870     2.5140 h1         1 R34       0.048367
     37 H5          -3.0600    -0.8820     2.5150 h1         1 R34       0.048367
     38 H6          -4.0860     0.0010     1.3770 h1         1 R34       0.048367
     39 H7           6.1810    -1.6620    -0.1420 ha         1 R34       0.141000
     40 H8           3.7030     1.7180     2.5000 ha         1 R34       0.157000
     41 H9           8.4480    -0.2770     1.0450 hn         1 R34       0.311700
     42 H11          8.3170     1.7840     5.3360 ha         1 R34       0.149000
     43 H12          8.1750     3.7740     6.7790 ha         1 R34       0.146000
     44 H13          9.3630     4.2550     2.0030 ha         1 R34       0.133000
     45 H14          9.5640     6.8330     6.1530 hc         1 R34       0.059367
     46 H15          7.8700     7.0460     5.6910 hc         1 R34       0.059367
     47 H16          8.2860     6.0510     7.0940 hc         1 R34       0.059367
     48 H17         -0.8380    -0.0070    -2.1240 ha         1 R34       0.155000
     49 H18         -3.1700     0.0050    -0.9540 h4         1 R34       0.164000
     50 H19          9.4290     5.9780     1.3740 hn         1 R34       0.322500
     51 H20          9.8830     7.9870     0.5140 ho         1 R34       0.399000
@<TRIPOS>BOND
     1    20    21 ar
     2    20    19 ar
     3    21    22 ar
     4    27    28 2
     5    27     1 1
     6    18    19 1
     7    18    17 1
     8     2     1 ar
     9     2     7 ar
    10    28     4 1
    11    19    24 ar
    12     1     3 ar
    13    17    16 2
    14    17    15 1
    15    22    25 1
    16    22    23 ar
    17    16    13 1
    18    15    12 1
    19    13    12 ar
    20    13    14 ar
    21    12    11 ar
    22    14     9 ar
    23    11    10 ar
    24     9    10 ar
    25     9     7 1
    26    10    26 1
    27     7     6 ar
    28     4     3 1
    29     4     8 1
    30     3     5 ar
    31    24    23 ar
    32    23    29 1
    33     6     5 ar
    34    32    30 1
    35    29    31 2
    36    29    30 1
    37     2    33 1
    38     5    34 1
    39     6    35 1
    40     8    36 1
    41     8    37 1
    42     8    38 1
    43    11    39 1
    44    14    40 1
    45    15    41 1
    46    20    42 1
    47    21    43 1
    48    24    44 1
    49    25    45 1
    50    25    46 1
    51    25    47 1
    52    27    48 1
    53    28    49 1
    54    30    50 1
    55    32    51 1
@<TRIPOS>SUBSTRUCTURE
     1 R34         1 TEMP              0 ****  ****    0 ROOT
