@<TRIPOS>MOLECULE
R34
   51    55     1     0     0
SMALL
bcc


@<TRIPOS>ATOM
      1 C6           0.0000     0.0000     0.0000 ca         1 R34      -0.104800
      2 C21          1.3940     0.0000     0.0000 ca         1 R34      -0.029000
      3 C5          -0.7040     0.0010     1.2190 ca         1 R34      -0.204200
      4 N7          -2.0460     0.0010     0.9120 na         1 R34       0.389600
      5 C4           0.0010     0.0020     2.4200 ca         1 R34      -0.106000
      6 C3           1.3670     0.0010     2.4150 ca         1 R34      -0.069000
      7 C2           2.0750     0.0000     1.2100 cp         1 R34      -0.078000
      8 C1          -3.1340     0.0020     1.8930 c3         1 R34      -0.005400
      9 C7           3.5600    -0.0010     1.2240 cp         1 R34      -0.022000
     10 C10          4.2630    -0.9320     0.4510 ca         1 R34      -0.026600
     11 C11          5.6410    -0.9400     0.4580 ca         1 R34      -0.080000
     12 C12          6.3370    -0.0230     1.2340 ca         1 R34      -0.280200
     13 C13          5.6400     0.9150     2.0130 ca         1 R34       0.095400
     14 C14          4.2450     0.9240     1.9990 ca         1 R34      -0.039000
     15 N21          7.6820     0.2200     1.4530 na         1 R34       0.270700
     16 N22          6.5700     1.6700     2.6560 nc         1 R34      -0.590100
     17 C23          7.7680     1.2630     2.3280 cd         1 R34       0.424100
     18 O25          8.9230     1.7970     2.7880 os         1 R34      -0.296700
     19 C26          8.8460     2.8990     3.5800 ca         1 R34       0.102100
     20 C27          8.5140     2.7660     4.9230 ca         1 R34      -0.067000
     21 C28          8.4340     3.8830     5.7330 ca         1 R34      -0.104000
     22 C29          8.6840     5.1380     5.2130 ca         1 R34      -0.006300
     23 C30          9.0180     5.2800     3.8650 ca         1 R34      -0.150600
     24 C31          9.1040     4.1510     3.0500 ca         1 R34      -0.086000
     25 C32          8.5950     6.3520     6.1000 c3         1 R34       0.046200
     26 Cl1          3.3970    -2.0800    -0.5200 cl         1 R34      -0.015400
     27 C8          -1.0180    -0.0050    -1.0550 cc         1 R34      -0.159200
     28 C9          -2.2130     0.0010    -0.4460 cd         1 R34      -0.254100
     29 C18          9.2860     6.6220     3.3060 c          1 R34       0.601700
     30 N8           9.4900     6.7710     1.9820 ns         1 R34      -0.062400
     31 O20          9.3220     7.5910     4.0380 o          1 R34      -0.623100
     32 O21          9.7460     8.0570     1.4450 oh         1 R34      -0.437100
     33 H1           1.9410    -0.0010    -0.9350 ha         1 R34       0.113000
     34 H2          -0.5350     0.0030     3.3610 ha         1 R34       0.100000
     35 H3           1.9060     0.0010     3.3540 ha         1 R34       0.107000
     36 H4          -3.0600     0.8870     2.5140 h1         1 R34       0.017367
     37 H5          -3.0600    -0.8820     2.5150 h1         1 R34       0.017367
     38 H6          -4.0860     0.0010     1.3770 h1         1 R34       0.017367
     39 H7           6.1810    -1.6620    -0.1420 ha         1 R34       0.111000
     40 H8           3.7030     1.7180     2.5000 ha         1 R34       0.123000
     41 H9           8.4480    -0.2770     1.0450 hn         1 R34       0.130700
     42 H11          8.3170     1.7840     5.3360 ha         1 R34       0.115000
     43 H12          8.1750     3.7740     6.7790 ha         1 R34       0.115000
     44 H13          9.3630     4.2550     2.0030 ha         1 R34       0.106000
     45 H14          9.5640     6.8330     6.1530 hc         1 R34       0.024367
     46 H15          7.8700     7.0460     5.6910 hc         1 R34       0.024367
     47 H16          8.2860     6.0510     7.0940 hc         1 R34       0.024367
     48 H17         -0.8380    -0.0070    -2.1240 ha         1 R34       0.129000
     49 H18         -3.1700     0.0050    -0.9540 h4         1 R34       0.139000
     50 H19          9.4290     5.9780     1.3740 hn         1 R34       0.161500
     51 H20          9.8830     7.9870     0.5140 ho         1 R34       0.391000
@<TRIPOS>BOND
     1     1     2 ar  
     2     1     3 ar  
     3     1    27 1   
     4     2     7 ar  
     5     2    33 1   
     6     3     4 1   
     7     3     5 ar  
     8     4     8 1   
     9     4    28 1   
    10     5     6 ar  
    11     5    34 1   
    12     6     7 ar  
    13     6    35 1   
    14     7     9 1   
    15     8    36 1   
    16     8    37 1   
    17     8    38 1   
    18     9    10 ar  
    19     9    14 ar  
    20    10    11 ar  
    21    10    26 1   
    22    11    12 ar  
    23    11    39 1   
    24    12    13 ar  
    25    12    15 1   
    26    13    14 ar  
    27    13    16 1   
    28    14    40 1   
    29    15    17 1   
    30    15    41 1   
    31    16    17 2   
    32    17    18 1   
    33    18    19 1   
    34    19    20 ar  
    35    19    24 ar  
    36    20    21 ar  
    37    20    42 1   
    38    21    22 ar  
    39    21    43 1   
    40    22    23 ar  
    41    22    25 1   
    42    23    24 ar  
    43    23    29 1   
    44    24    44 1   
    45    25    45 1   
    46    25    46 1   
    47    25    47 1   
    48    27    28 2   
    49    27    48 1   
    50    28    49 1   
    51    29    30 1   
    52    29    31 2   
    53    30    32 1   
    54    30    50 1   
    55    32    51 1   
@<TRIPOS>SUBSTRUCTURE
     1 R34         1 TEMP              0 ****  ****    0 ROOT
