@<TRIPOS>MOLECULE
molecule
   24    23     1     0     0
SMALL
bcc


@<TRIPOS>ATOM
      1 C1           0.0000     0.0000     0.0000 c          1 R35       0.916600
      2 O1          -0.6040    -0.9060    -0.5230 o          1 R35      -0.871800
      3 C2           1.5060     0.0000     0.0000 c3         1 R35      -0.142700
      4 C3           2.0170     0.0000     1.4420 c3         1 R35      -0.046000
      5 C4           1.3760    -1.1590     2.2090 c3         1 R35      -0.073100
      6 C5           3.5370    -0.1640     1.4450 c3         1 R35      -0.073100
      7 C6           1.6460     1.3230     2.1140 c3         1 R35      -0.073100
      8 C7           2.0160    -1.2490    -0.7210 c3         1 R35      -0.160400
      9 C8           1.6450    -1.1750    -2.1800 c          1 R35       0.915600
     10 O2           1.1310    -0.1740    -2.6220 o          1 R35      -0.880300
     11 O3           1.8840    -2.2200    -2.9880 o          1 R35      -0.880300
     12 H1           1.8670     0.8850    -0.5110 hc         1 R35       0.053700
     13 H2           1.6860    -2.0990     1.7690 hc         1 R35       0.017700
     14 H3           0.2980    -1.0740     2.1570 hc         1 R35       0.017700
     15 H4           1.6920    -1.1240     3.2450 hc         1 R35       0.017700
     16 H5           3.9700     0.4600     0.6730 hc         1 R35       0.017700
     17 H6           3.7890    -1.2010     1.2540 hc         1 R35       0.017700
     18 H7           3.9300     0.1310     2.4110 hc         1 R35       0.017700
     19 H8           1.7400     2.1310     1.3980 hc         1 R35       0.017700
     20 H9           2.3110     1.5020     2.9500 hc         1 R35       0.017700
     21 H10          0.6240     1.2730     2.4700 hc         1 R35       0.017700
     22 H11          1.5680    -2.1300    -0.2790 hc         1 R35       0.012200
     23 H12          3.0940    -1.3060    -0.6260 hc         1 R35       0.012200
     24 O4          -0.6710     1.0110     0.5740 o          1 R35      -0.871800
@<TRIPOS>BOND
     1     1     2 1
     2     1     3 1
     3     3     4 1
     4     3     8 1
     5     3    12 1
     6     4     5 1
     7     4     6 1
     8     4     7 1
     9     5    13 1
    10     5    14 1
    11     5    15 1
    12     6    16 1
    13     6    17 1
    14     6    18 1
    15     7    19 1
    16     7    20 1
    17     7    21 1
    18     8     9 1
    19     8    22 1
    20     8    23 1
    21     9    10 1
    22     9    11 1
    23     1    24 1
@<TRIPOS>SUBSTRUCTURE
     1 R35         1 TEMP              0 ****  ****    0 ROOT
