@<TRIPOS>MOLECULE
R35
   24    23     1     0     0
SMALL
bcc


@<TRIPOS>ATOM
      1 C1         -1.0240   -0.1640   -1.3030 c         1 R35      0.523100
      2 O1         -1.2710   -1.0160   -0.4110 o         1 R35     -0.613500
      3 C2          2.2660    0.2120    0.1120 c3        1 R35      0.093800
      4 C3          2.2350   -0.1770    1.6100 c3        1 R35     -0.072000
      5 C4          1.1430   -1.2080    1.8350 c3        1 R35     -0.072433
      6 C5          3.5800   -0.7480    2.0280 c3        1 R35     -0.072433
      7 C6          1.9440    1.0630    2.4410 c3        1 R35     -0.072433
      8 C7          2.2190   -0.9180   -0.8050 c2        1 R35     -0.632200
      9 C8          1.1820   -1.1470   -1.7070 c2        1 R35      0.483100
     10 O2          0.2210   -0.1400   -1.9150 os        1 R35     -0.565200
     11 O3          1.0540   -2.1040   -2.5220 o         1 R35     -0.573000
     12 H1          1.3920    0.8920   -0.0820 hc        1 R35     -0.010800
     13 H2          0.2170   -0.9180    1.2690 hc        1 R35      0.015589
     14 H3          0.9130   -1.3130    2.9250 hc        1 R35      0.015589
     15 H4          1.4720   -2.1980    1.4360 hc        1 R35      0.015589
     16 H5          3.5460   -1.1170    3.0830 hc        1 R35      0.015589
     17 H6          4.3780    0.0290    1.9540 hc        1 R35      0.015589
     18 H7          3.8480   -1.5990    1.3560 hc        1 R35      0.015589
     19 H8          2.6870    1.8660    2.2180 hc        1 R35      0.015589
     20 H9          1.9930    0.8340    3.5340 hc        1 R35      0.015589
     21 H10         0.9220    1.4460    2.2040 hc        1 R35      0.015589
     22 H11         3.2070    0.8230   -0.0310 hc        1 R35     -0.010800
     23 H12         3.0210   -1.6570   -0.7570 ha        1 R35      0.070000
     24 O4         -1.7740    0.7590   -1.7320 o         1 R35     -0.613500
@<TRIPOS>BOND
     1    1    2 1   
     2    1   10 1   
     3    1   24 1   
     4    3    4 1   
     5    3    8 1   
     6    3   12 1   
     7    3   22 1   
     8    4    5 1   
     9    4    6 1   
    10    4    7 1   
    11    5   13 1   
    12    5   14 1   
    13    5   15 1   
    14    6   16 1   
    15    6   17 1   
    16    6   18 1   
    17    7   19 1   
    18    7   20 1   
    19    7   21 1   
    20    8    9 2   
    21    8   23 1   
    22    9   10 1   
    23    9   11 1   
@<TRIPOS>SUBSTRUCTURE
     1 R35         1 TEMP              0 ****  ****    0 ROOT
