@<TRIPOS>MOLECULE
molecule
   80    82     1     0     0
SMALL
bcc


@<TRIPOS>ATOM
      1 C            0.0000     0.0000     0.0000 ca         1 R36      -0.090300
      2 C8           1.3880     0.0000     0.0000 ca         1 R36       0.076100
      3 C9           2.0790     0.0000     1.2020 ca         1 R36      -0.090300
      4 C10          1.3840     0.0110     2.3980 ca         1 R36      -0.127000
      5 C13          0.0010     0.0100     2.3940 ca         1 R36      -0.123000
      6 C14         -0.6900     0.0050     1.1970 ca         1 R36      -0.127000
      7 C3           3.5860     0.0010     1.2060 c3         1 R36      -0.048800
      8 C2          -0.7550    -0.0070    -1.3050 c3         1 R36      -0.048800
      9 C16          5.2670     8.9160    -4.0750 ca         1 R36      -0.144600
     10 C26          4.0670     8.8340    -3.3670 ca         1 R36      -0.113000
     11 C27          3.2520     9.9430    -3.2580 ca         1 R36      -0.136000
     12 C28          3.6200    11.1360    -3.8500 ca         1 R36      -0.122000
     13 C29          4.8120    11.2290    -4.5580 ca         1 R36       0.153600
     14 N1           5.1790    12.4380    -5.1540 nv         1 R36      -0.989200
     15 C30          5.6400    10.1220    -4.6680 ca         1 R36      -0.086000
     16 O1           2.0680    -0.0050    -1.1760 os         1 R36      -0.284900
     17 C34          2.2740     1.3620    -1.5390 c3         1 R36       0.054400
     18 C25          3.0290     1.4270    -2.8430 c          1 R36       0.647100
     19 O26          3.3570     0.4030    -3.4050 o          1 R36      -0.566100
     20 N16          3.3380     2.6210    -3.3840 ns         1 R36      -0.582900
     21 C15          4.8230     4.0140    -4.7390 c3         1 R36       0.132100
     22 O14          3.8890     5.0950    -4.6740 oh         1 R36      -0.617800
     23 C12          5.8090     4.1220    -3.5730 c3         1 R36      -0.096400
     24 C4           6.6480     5.3910    -3.7310 c3         1 R36       0.114700
     25 C5           7.7150     5.4350    -2.6360 c3         1 R36      -0.090400
     26 C6           8.6320     6.6380    -2.8660 c3         1 R36      -0.073700
     27 C11          9.6220     6.7540    -1.7040 c3         1 R36      -0.088100
     28 C7           9.4010     6.4510    -4.1750 c3         1 R36      -0.088100
     29 N3           5.7810     6.5660    -3.6140 ns         1 R36      -0.568900
     30 C1           6.1410     7.7300    -4.1930 c          1 R36       0.670700
     31 O2           7.1850     7.8030    -4.8110 o          1 R36      -0.619100
     32 C17          4.0710     2.6850    -4.6510 c3         1 R36       0.104700
     33 C18          3.0850     2.5770    -5.8160 c3         1 R36      -0.053100
     34 C19          2.4340     1.2190    -5.7990 ca         1 R36      -0.070300
     35 C20          1.2620     1.0230    -5.0930 ca         1 R36      -0.117500
     36 C21          0.6640    -0.2230    -5.0780 ca         1 R36      -0.116500
     37 C22          1.2390    -1.2740    -5.7690 ca         1 R36      -0.121000
     38 C23          2.4100    -1.0770    -6.4770 ca         1 R36      -0.116500
     39 C24          3.0060     0.1700    -6.4950 ca         1 R36      -0.117500
     40 H101         1.9230     0.0130     3.3370 ha         1 R36       0.133000
     41 H131        -0.5410     0.0170     3.3310 ha         1 R36       0.131000
     42 H141        -1.7730     0.0050     1.1970 ha         1 R36       0.133000
     43 H31          3.9490    -0.6200     0.3960 hc         1 R36       0.048200
     44 H32          3.9450    -0.3910     2.1500 hc         1 R36       0.048200
     45 H33          3.9470     1.0140     1.0750 hc         1 R36       0.048200
     46 H21         -1.7620    -0.3670    -1.1370 hc         1 R36       0.048200
     47 H22         -0.2510    -0.6580    -2.0100 hc         1 R36       0.048200
     48 H23         -0.7930     0.9990    -1.7060 hc         1 R36       0.048200
     49 H261         3.7740     7.9000    -2.9030 ha         1 R36       0.128000
     50 H271         2.3220     9.8770    -2.7070 ha         1 R36       0.132000
     51 H281         2.9760    12.0030    -3.7620 ha         1 R36       0.137000
     52 H11          4.9200    12.6280    -6.1020 hn         1 R36       0.429800
     53 H12          5.7140    13.1080    -4.6390 hn         1 R36       0.429800
     54 H301         6.5700    10.1910    -5.2190 ha         1 R36       0.162000
     55 H341         2.8460     1.8590    -0.7660 h1         1 R36       0.048200
     56 H342         1.3160     1.8540    -1.6520 h1         1 R36       0.048200
     57 H161         3.0580     3.4660    -2.9250 hn         1 R36       0.319500
     58 H151         5.3650     4.0610    -5.6750 h1         1 R36       0.051700
     59 H14O         3.7180     5.4140    -5.5450 ho         1 R36       0.413000
     60 H121         5.2610     4.1640    -2.6390 hc         1 R36       0.062700
     61 H122         6.4600     3.2560    -3.5710 hc         1 R36       0.062700
     62 H41          7.1260     5.3900    -4.7030 h1         1 R36       0.079700
     63 H51          7.2370     5.5250    -1.6690 hc         1 R36       0.043700
     64 H52          8.3010     4.5240    -2.6660 hc         1 R36       0.043700
     65 H61          8.0360     7.5410    -2.9240 hc         1 R36       0.067700
     66 H111        10.3200     7.5590    -1.9030 hc         1 R36       0.034033
     67 H112         9.0820     6.9630    -0.7890 hc         1 R36       0.034033
     68 H113        10.1660     5.8230    -1.5990 hc         1 R36       0.034033
     69 H71          8.7110     6.4940    -5.0090 hc         1 R36       0.034033
     70 H72          9.8980     5.4880    -4.1670 hc         1 R36       0.034033
     71 H73         10.1390     7.2370    -4.2760 hc         1 R36       0.034033
     72 HN31         4.9270     6.5090    -3.0950 hn         1 R36       0.325500
     73 H171         4.7780     1.8660    -4.7000 h1         1 R36       0.088700
     74 H181         2.3260     3.3430    -5.7190 hc         1 R36       0.051200
     75 H182         3.6160     2.7110    -6.7510 hc         1 R36       0.051200
     76 H201         0.8120     1.8460    -4.5510 ha         1 R36       0.120500
     77 H211        -0.2540    -0.3770    -4.5240 ha         1 R36       0.124500
     78 H221         0.7710    -2.2510    -5.7560 ha         1 R36       0.126000
     79 H231         2.8590    -1.9000    -7.0210 ha         1 R36       0.124500
     80 H241         3.9230     0.3250    -7.0500 ha         1 R36       0.120500
@<TRIPOS>BOND
     1     1     2 ar
     2     1     6 ar
     3     1     8 1
     4     2     3 ar
     5     2    16 1
     6     3     4 ar
     7     3     7 1
     8     4     5 ar
     9     4    40 1
    10     5     6 ar
    11     5    41 1
    12     6    42 1
    13     7    43 1
    14     7    44 1
    15     7    45 1
    16     8    46 1
    17     8    47 1
    18     8    48 1
    19     9    10 ar
    20     9    15 ar
    21     9    30 1
    22    10    11 ar
    23    10    49 1
    24    11    12 ar
    25    11    50 1
    26    12    13 ar
    27    12    51 1
    28    13    14 1
    29    13    15 ar
    30    14    52 1
    31    14    53 1
    32    15    54 1
    33    16    17 1
    34    17    18 1
    35    17    55 1
    36    17    56 1
    37    18    19 2
    38    18    20 1
    39    20    32 1
    40    20    57 1
    41    21    22 1
    42    21    23 1
    43    21    32 1
    44    21    58 1
    45    22    59 1
    46    23    24 1
    47    23    60 1
    48    23    61 1
    49    24    25 1
    50    24    29 1
    51    24    62 1
    52    25    26 1
    53    25    63 1
    54    25    64 1
    55    26    27 1
    56    26    28 1
    57    26    65 1
    58    27    66 1
    59    27    67 1
    60    27    68 1
    61    28    69 1
    62    28    70 1
    63    28    71 1
    64    29    30 1
    65    29    72 1
    66    30    31 2
    67    32    33 1
    68    32    73 1
    69    33    34 1
    70    33    74 1
    71    33    75 1
    72    34    35 ar
    73    34    39 ar
    74    35    36 ar
    75    35    76 1
    76    36    37 ar
    77    36    77 1
    78    37    38 ar
    79    37    78 1
    80    38    39 ar
    81    38    79 1
    82    39    80 1
@<TRIPOS>SUBSTRUCTURE
     1 R36         1 TEMP              0 ****  ****    0 ROOT
