@<TRIPOS>MOLECULE
R37
   80    82     1     0     0
SMALL
bcc


@<TRIPOS>ATOM
      1 C            0.0000     0.0000     0.0000 ca         1 R37      -0.102800
      2 C8           1.3870     0.0000     0.0000 ca         1 R37       0.088100
      3 C9           2.0780     0.0000     1.2030 ca         1 R37      -0.102800
      4 C10          1.3840     0.0120     2.3970 ca         1 R37      -0.099000
      5 C13          0.0020     0.0120     2.3940 ca         1 R37      -0.100000
      6 C14         -0.6900     0.0060     1.1970 ca         1 R37      -0.099000
      7 C3           3.5860     0.0010     1.2070 c3         1 R37       0.058700
      8 C2          -0.7540    -0.0070    -1.3050 c3         1 R37       0.058700
      9 C16          5.3580     8.9510    -3.9270 ca         1 R37      -0.229600
     10 C26          5.7600    10.1740    -4.4730 ca         1 R37      -0.002500
     11 C27          4.9970    11.3010    -4.2690 ca         1 R37      -0.206000
     12 C28          3.8270    11.2240    -3.5200 ca         1 R37       0.075600
     13 C29          3.4230    10.0090    -2.9750 ca         1 R37      -0.206000
     14 N1           3.0570    12.3650    -3.3160 nv         1 R37      -0.433200
     15 C30          4.1780     8.8770    -3.1810 ca         1 R37      -0.002500
     16 O1           2.0680    -0.0060    -1.1770 os         1 R37      -0.266900
     17 C34          2.2750     1.3600    -1.5400 c3         1 R37       0.121400
     18 C25          3.0300     1.4240    -2.8430 c          1 R37       0.553100
     19 O26          3.3570     0.4010    -3.4050 o          1 R37      -0.608100
     20 N16          3.3390     2.6190    -3.3840 ns         1 R37      -0.194900
     21 C15          4.8250     4.0100    -4.7410 c3         1 R37       0.177100
     22 O14          3.8920     5.0910    -4.6760 oh         1 R37      -0.601800
     23 C12          5.8110     4.1180    -3.5760 c3         1 R37      -0.061400
     24 C4           6.6490     5.3870    -3.7320 c3         1 R37       0.015700
     25 C5           7.7180     5.4310    -2.6370 c3         1 R37      -0.047400
     26 C6           8.7140     4.2900    -2.8510 c3         1 R37      -0.056700
     27 C11          9.4720     4.5120    -4.1610 c3         1 R37       0.003400
     28 C7           9.7070     4.2560    -1.6880 c3         1 R37       0.003400
     29 N3           5.7840     6.5630    -3.6170 ns         1 R37      -0.194900
     30 C1           6.1730     7.7410    -4.1440 c          1 R37       0.607700
     31 O2           7.1960     7.8060    -4.7980 o          1 R37      -0.669100
     32 C17          4.0730     2.6810    -4.6510 c3         1 R37      -0.003300
     33 C18          3.0870     2.5730    -5.8170 c3         1 R37       0.012900
     34 C19          2.4350     1.2150    -5.8000 ca         1 R37      -0.080300
     35 C20          1.2630     1.0200    -5.0930 ca         1 R37      -0.093500
     36 C21          0.6650    -0.2260    -5.0780 ca         1 R37      -0.088500
     37 C22          1.2380    -1.2770    -5.7690 ca         1 R37      -0.094000
     38 C23          2.4100    -1.0820    -6.4760 ca         1 R37      -0.088500
     39 C24          3.0060     0.1660    -6.4950 ca         1 R37      -0.093500
     40 H101         1.9230     0.0140     3.3370 ha         1 R37       0.107000
     41 H131        -0.5410     0.0190     3.3320 ha         1 R37       0.103000
     42 H141        -1.7730     0.0060     1.1970 ha         1 R37       0.107000
     43 H31          3.9490    -0.6120     0.3910 hc         1 R37       0.012867
     44 H32          3.9440    -0.4010     2.1470 hc         1 R37       0.012867
     45 H33          3.9470     1.0150     1.0870 hc         1 R37       0.012867
     46 H21         -0.7980     1.0000    -1.7020 hc         1 R37       0.012867
     47 H22         -1.7600    -0.3740    -1.1390 hc         1 R37       0.012867
     48 H23         -0.2470    -0.6520    -2.0120 hc         1 R37       0.012867
     49 H261         6.6720    10.2350    -5.0530 ha         1 R37       0.111000
     50 H271         5.3080    12.2490    -4.6910 ha         1 R37       0.111000
     51 H291         2.5100     9.9520    -2.3950 ha         1 R37       0.111000
     52 H11          3.3440    13.2390    -3.7110 hn         1 R37       0.266800
     53 H12          2.2210    12.3130    -2.7690 hn         1 R37       0.266800
     54 H301         3.8640     7.9310    -2.7560 ha         1 R37       0.111000
     55 H341         1.3170     1.8540    -1.6520 h1         1 R37       0.013200
     56 H342         2.8490     1.8570    -0.7660 h1         1 R37       0.013200
     57 H161         3.0410     3.4630    -2.9370 hn         1 R37       0.181500
     58 H151         5.3670     4.0560    -5.6780 h1         1 R37       0.020700
     59 H14O         3.6960     5.3890    -5.5490 ho         1 R37       0.404000
     60 H121         5.2630     4.1600    -2.6420 hc         1 R37       0.037700
     61 H122         6.4620     3.2520    -3.5730 hc         1 R37       0.037700
     62 H41          7.1280     5.3860    -4.7040 h1         1 R37       0.064700
     63 H51          7.2460     5.3210    -1.6680 hc         1 R37       0.027700
     64 H52          8.2400     6.3790    -2.6800 hc         1 R37       0.027700
     65 H61          8.1810     3.3490    -2.8980 hc         1 R37       0.025700
     66 H111        10.2940     3.8090    -4.2270 hc         1 R37       0.005533
     67 H112         9.8600     5.5240    -4.1870 hc         1 R37       0.005533
     68 H113         8.8000     4.3620    -4.9970 hc         1 R37       0.005533
     69 H71         10.2370     5.1990    -1.6370 hc         1 R37       0.005533
     70 H72          9.1710     4.0930    -0.7600 hc         1 R37       0.005533
     71 H73         10.4150     3.4510    -1.8410 hc         1 R37       0.005533
     72 HN31         4.9280     6.5050    -3.1010 hn         1 R37       0.190500
     73 H171         4.7800     1.8620    -4.7000 h1         1 R37       0.068700
     74 H181         3.6170     2.7070    -6.7520 hc         1 R37       0.022200
     75 H182         2.3270     3.3400    -5.7190 hc         1 R37       0.022200
     76 H201         0.8130     1.8430    -4.5510 ha         1 R37       0.097000
     77 H211        -0.2530    -0.3790    -4.5240 ha         1 R37       0.098000
     78 H221         0.7700    -2.2540    -5.7550 ha         1 R37       0.099000
     79 H231         2.8580    -1.9040    -7.0190 ha         1 R37       0.098000
     80 H241         3.9240     0.3190    -7.0490 ha         1 R37       0.097000
@<TRIPOS>BOND
     1     1     2 ar  
     2     1     6 ar  
     3     1     8 1   
     4     2     3 ar  
     5     2    16 1   
     6     3     4 ar  
     7     3     7 1   
     8     4     5 ar  
     9     4    40 1   
    10     5     6 ar  
    11     5    41 1   
    12     6    42 1   
    13     7    43 1   
    14     7    44 1   
    15     7    45 1   
    16     8    46 1   
    17     8    47 1   
    18     8    48 1   
    19     9    10 ar  
    20     9    15 ar  
    21     9    30 1   
    22    10    11 ar  
    23    10    49 1   
    24    11    12 ar  
    25    11    50 1   
    26    12    13 ar  
    27    12    14 1   
    28    13    15 ar  
    29    13    51 1   
    30    14    52 1   
    31    14    53 1   
    32    15    54 1   
    33    16    17 1   
    34    17    18 1   
    35    17    55 1   
    36    17    56 1   
    37    18    19 2   
    38    18    20 1   
    39    20    32 1   
    40    20    57 1   
    41    21    22 1   
    42    21    23 1   
    43    21    32 1   
    44    21    58 1   
    45    22    59 1   
    46    23    24 1   
    47    23    60 1   
    48    23    61 1   
    49    24    25 1   
    50    24    29 1   
    51    24    62 1   
    52    25    26 1   
    53    25    63 1   
    54    25    64 1   
    55    26    27 1   
    56    26    28 1   
    57    26    65 1   
    58    27    66 1   
    59    27    67 1   
    60    27    68 1   
    61    28    69 1   
    62    28    70 1   
    63    28    71 1   
    64    29    30 1   
    65    29    72 1   
    66    30    31 2   
    67    32    33 1   
    68    32    73 1   
    69    33    34 1   
    70    33    74 1   
    71    33    75 1   
    72    34    35 ar  
    73    34    39 ar  
    74    35    36 ar  
    75    35    76 1   
    76    36    37 ar  
    77    36    77 1   
    78    37    38 ar  
    79    37    78 1   
    80    38    39 ar  
    81    38    79 1   
    82    39    80 1   
@<TRIPOS>SUBSTRUCTURE
     1 R37         1 TEMP              0 ****  ****    0 ROOT
