@<TRIPOS>MOLECULE
R38
   38    39     1     0     0
SMALL
bcc


@<TRIPOS>ATOM
      1 N01          0.0000     0.0000     0.0000 ns         1 R38      -0.124900
      2 C02          1.4650     0.0000     0.0000 c3         1 R38      -0.101300
      3 C03          1.9670     1.2320    -0.7100 c          1 R38       0.975600
      4 O04          3.2860     1.4440    -0.8330 o          1 R38      -0.889300
      5 O05          1.1810     2.0270    -1.1690 o          1 R38      -0.889300
      6 C06          1.9750     0.0000     1.4430 c3         1 R38       0.062800
      7 C07          1.5770    -1.2880     2.1160 cc         1 R38      -0.108400
      8 C08          2.3060    -2.5570     2.0700 ca         1 R38      -0.091800
      9 C09          1.5610    -3.4630     2.8460 ca         1 R38      -0.228200
     10 N10          0.4620    -2.7810     3.3220 na         1 R38       0.338600
     11 C11          0.4890    -1.4880     2.8780 cd         1 R38      -0.303100
     12 C12          2.0110    -4.7710     2.9890 ca         1 R38      -0.123000
     13 C13          3.1790    -5.1630     2.3720 ca         1 R38      -0.092000
     14 C14          3.9120    -4.2650     1.6070 ca         1 R38      -0.154000
     15 C15          3.4860    -2.9760     1.4530 ca         1 R38      -0.018000
     16 C16         -0.6730    -0.4990    -1.0560 c          1 R38       0.573100
     17 O17         -0.0670    -0.9460    -2.0050 o          1 R38      -0.665100
     18 C18         -2.1800    -0.4990    -1.0560 c3         1 R38      -0.108700
     19 C19         -2.6900    -1.1150    -2.3610 c3         1 R38       0.135700
     20 S20         -4.4980    -0.9820    -2.4260 sh         1 R38      -0.450900
     21 C21         -2.6910    -1.3210     0.1290 c3         1 R38      -0.008100
     22 H1          -0.5000     0.4220     0.7570 hn         1 R38       0.152500
     23 H2           1.8270    -0.8840    -0.5110 h1         1 R38       0.062700
     24 H4           1.5430     0.8360     1.9780 hc         1 R38       0.031700
     25 H5           3.0550     0.0890     1.4440 hc         1 R38       0.031700
     26 H6          -0.2490    -3.1730     3.9070 hn         1 R38       0.102700
     27 H7          -0.2550    -0.7350     3.1080 h4         1 R38       0.138000
     28 H8           1.4470    -5.4790     3.5840 ha         1 R38       0.089000
     29 H9           3.5290    -6.1820     2.4840 ha         1 R38       0.088000
     30 H10          4.8280    -4.5890     1.1280 ha         1 R38       0.098000
     31 H11          4.0630    -2.2810     0.8550 ha         1 R38       0.121000
     32 H12         -2.5420     0.5190    -0.9710 hc         1 R38       0.053700
     33 H13         -2.2590    -0.5870    -3.2020 h1         1 R38       0.049200
     34 H14         -2.4030    -2.1590    -2.4040 h1         1 R38       0.049200
     35 H15         -4.9110    -1.1640    -3.6740 hs         1 R38       0.174800
     36 H16         -3.7380    -1.5550    -0.0180 hc         1 R38       0.009367
     37 H17         -2.5730    -0.7500     1.0420 hc         1 R38       0.009367
     38 H18         -2.1220    -2.2400     0.2030 hc         1 R38       0.009367
@<TRIPOS>BOND
     1     1     2 1   
     2     1    16 1   
     3     1    22 1   
     4     2     3 1   
     5     2     6 1   
     6     2    23 1   
     7     3     4 1   
     8     3     5 1   
     9     6     7 1   
    10     6    24 1   
    11     6    25 1   
    12     7     8 1   
    13     7    11 2   
    14     8     9 ar  
    15     8    15 ar  
    16     9    10 1   
    17     9    12 ar  
    18    10    11 1   
    19    10    26 1   
    20    11    27 1   
    21    12    13 ar  
    22    12    28 1   
    23    13    14 ar  
    24    13    29 1   
    25    14    15 ar  
    26    14    30 1   
    27    15    31 1   
    28    16    17 2   
    29    16    18 1   
    30    18    19 1   
    31    18    21 1   
    32    18    32 1   
    33    19    20 1   
    34    19    33 1   
    35    19    34 1   
    36    20    35 1   
    37    21    36 1   
    38    21    37 1   
    39    21    38 1   
@<TRIPOS>SUBSTRUCTURE
     1 R38         1 TEMP              0 ****  ****    0 ROOT
