@<TRIPOS>MOLECULE
molecule
   38    39     1     0     0
SMALL
bcc


@<TRIPOS>ATOM
      1 N01          0.0000     0.0000     0.0000 ns         1 R38      -0.538900
      2 C02          1.4650     0.0000     0.0000 c3         1 R38       0.009700
      3 C03          1.9670     1.2320    -0.7100 c          1 R38       0.884600
      4 O04          3.2860     1.4440    -0.8330 o          1 R38      -0.839300
      5 O05          1.1810     2.0270    -1.1690 o          1 R38      -0.839300
      6 C06          1.9750     0.0000     1.4430 c3         1 R38      -0.009200
      7 C07          1.5770    -1.2880     2.1160 cc         1 R38      -0.114400
      8 C08          2.3060    -2.5570     2.0700 ca         1 R38      -0.093800
      9 C09          1.5610    -3.4630     2.8460 ca         1 R38      -0.042200
     10 N10          0.4620    -2.7810     3.3220 na         1 R38      -0.193400
     11 C11          0.4890    -1.4880     2.8780 cd         1 R38      -0.132100
     12 C12          2.0110    -4.7710     2.9890 ca         1 R38      -0.160000
     13 C13          3.1790    -5.1630     2.3720 ca         1 R38      -0.116000
     14 C14          3.9120    -4.2650     1.6070 ca         1 R38      -0.175000
     15 C15          3.4860    -2.9760     1.4530 ca         1 R38      -0.057000
     16 C16         -0.6730    -0.4990    -1.0560 c          1 R38       0.671100
     17 O17         -0.0670    -0.9460    -2.0050 o          1 R38      -0.622100
     18 C18         -2.1800    -0.4990    -1.0560 c3         1 R38      -0.137700
     19 C19         -2.6900    -1.1150    -2.3610 c3         1 R38       0.079700
     20 S20         -4.4980    -0.9820    -2.4260 sh         1 R38      -0.476900
     21 C21         -2.6910    -1.3210     0.1290 c3         1 R38      -0.090100
     22 H1          -0.5000     0.4220     0.7570 hn         1 R38       0.294500
     23 H2           1.8270    -0.8840    -0.5110 h1         1 R38       0.080700
     24 H4           1.5430     0.8360     1.9780 hc         1 R38       0.062200
     25 H5           3.0550     0.0890     1.4440 hc         1 R38       0.062200
     26 H6          -0.2490    -3.1730     3.9070 hn         1 R38       0.281700
     27 H7          -0.2550    -0.7350     3.1080 h4         1 R38       0.158000
     28 H8           1.4470    -5.4790     3.5840 ha         1 R38       0.111000
     29 H9           3.5290    -6.1820     2.4840 ha         1 R38       0.115000
     30 H10          4.8280    -4.5890     1.1280 ha         1 R38       0.121000
     31 H11          4.0630    -2.2810     0.8550 ha         1 R38       0.150000
     32 H12         -2.5420     0.5190    -0.9710 hc         1 R38       0.079700
     33 H13         -2.2590    -0.5870    -3.2020 h1         1 R38       0.074700
     34 H14         -2.4030    -2.1590    -2.4040 h1         1 R38       0.074700
     35 H15         -4.9110    -1.1640    -3.6740 hs         1 R38       0.209800
     36 H16         -3.7380    -1.5550    -0.0180 hc         1 R38       0.038367
     37 H17         -2.5730    -0.7500     1.0420 hc         1 R38       0.038367
     38 H18         -2.1220    -2.2400     0.2030 hc         1 R38       0.038367
@<TRIPOS>BOND
     1    13    14 ar
     2    13    12 ar
     3    14    15 ar
     4    12     9 ar
     5    21    18 1
     6    15     8 ar
     7     9     8 ar
     8     9    10 1
     9     8     7 1
    10    10    11 1
    11     7    11 2
    12     7     6 1
    13     6     2 1
    14    18    16 1
    15    18    19 1
    16    17    16 2
    17    16     1 1
    18     1     2 1
    19     2     3 1
    20    19    20 1
    21     3     5 1
    22     3     4 1
    23     1    22 1
    24     2    23 1
    25     6    24 1
    26     6    25 1
    27    10    26 1
    28    11    27 1
    29    12    28 1
    30    13    29 1
    31    14    30 1
    32    15    31 1
    33    18    32 1
    34    19    33 1
    35    19    34 1
    36    20    35 1
    37    21    36 1
    38    21    37 1
    39    21    38 1
@<TRIPOS>SUBSTRUCTURE
     1 R38         1 TEMP              0 ****  ****    0 ROOT
