@<TRIPOS>MOLECULE
molecule
   70    73     1     0     0
SMALL
bcc


@<TRIPOS>ATOM
      1 CAR          0.0000     0.0000     0.0000 c3         1 R39       0.122300
      2 CAO          1.5310     0.0000     0.0000 c3         1 R39       0.139900
      3 OAX          2.0020     0.0000     1.3510 os         1 R39      -0.426600
      4 CAP          1.5490    -1.1180     2.1190 c3         1 R39       0.139900
      5 CAS          0.0170    -1.1300     2.1390 c3         1 R39       0.122300
      6 NBG         -0.4850    -1.1620     0.7580 n3         1 R39      -0.717600
      7 CAT         -1.9530    -1.2310     0.7340 c3         1 R39       0.162800
      8 CAQ         -2.4170    -1.7360    -0.6330 c3         1 R39       0.142400
      9 OAY         -1.9790    -3.0840    -0.8180 os         1 R39      -0.311900
     10 CBC         -2.3120    -3.6860    -1.9910 ca         1 R39       0.131100
     11 CAK         -1.9190    -4.9930    -2.2350 ca         1 R39      -0.175000
     12 CAI         -2.2560    -5.6060    -3.4260 ca         1 R39      -0.106500
     13 CAJ         -3.0480    -2.9940    -2.9410 ca         1 R39      -0.175000
     14 CAH         -3.3870    -3.6050    -4.1320 ca         1 R39      -0.106500
     15 CBB         -2.9890    -4.9120    -4.3790 ca         1 R39       0.028600
     16 NAV         -3.3300    -5.5320    -5.5880 ns         1 R39      -0.484100
     17 CAZ         -2.4960    -6.4340    -6.1420 c          1 R39       0.788100
     18 OAE         -1.4050    -6.6390    -5.6450 o          1 R39      -0.622100
     19 NAW         -2.8700    -7.1080    -7.2490 ns         1 R39      -0.472100
     20 CBE         -2.0060    -8.0400    -7.8220 cc         1 R39       0.079300
     21 CAN         -0.7640    -8.3700    -7.3740 cd         1 R39      -0.340300
     22 CBF         -0.2420    -9.3410    -8.2330 cd         1 R39       0.367600
     23 CBI          1.1120    -9.9900    -8.1090 c3         1 R39      -0.083300
     24 CAC          1.0870   -11.0080    -6.9660 c3         1 R39      -0.080433
     25 CAD          1.4590   -10.7030    -9.4180 c3         1 R39      -0.080433
     26 CAB          2.1660    -8.9210    -7.8170 c3         1 R39      -0.080433
     27 NAU         -1.1280    -9.5920    -9.1630 nc         1 R39      -0.505800
     28 NBH         -2.2540    -8.7930    -8.9290 na         1 R39       0.115300
     29 CBD         -3.4250    -8.7690    -9.7000 ca         1 R39       0.038800
     30 CAL         -4.6540    -8.5600    -9.0880 ca         1 R39      -0.145000
     31 CAF         -5.8060    -8.5380    -9.8500 ca         1 R39      -0.109500
     32 CBA         -5.7360    -8.7230   -11.2190 ca         1 R39      -0.093300
     33 CAA         -6.9950    -8.6980   -12.0470 c3         1 R39      -0.047800
     34 CAG         -4.5130    -8.9300   -11.8290 ca         1 R39      -0.109500
     35 CAM         -3.3570    -8.9480   -11.0740 ca         1 R39      -0.145000
     36 HAR         -0.3600    -0.0590    -1.0200 h1         1 R39       0.041700
     37 HARA        -0.3600     0.9100     0.4650 h1         1 R39       0.041700
     38 HAO          1.8910     0.8860    -0.5080 h1         1 R39       0.055200
     39 HAOA         1.8920    -0.8860    -0.5080 h1         1 R39       0.055200
     40 HAP          1.9230    -1.0350     3.1320 h1         1 R39       0.055200
     41 HAPA         1.9100    -2.0350     1.6680 h1         1 R39       0.055200
     42 HAS         -0.3430    -0.2350     2.6330 h1         1 R39       0.041700
     43 HASA        -0.3300    -2.0080     2.6700 h1         1 R39       0.041700
     44 HAT         -2.2950    -1.9100     1.5050 h1         1 R39       0.048200
     45 HATA        -2.3630    -0.2440     0.9130 h1         1 R39       0.048200
     46 HAQ         -1.9970    -1.1100    -1.4110 h1         1 R39       0.035200
     47 HAQA        -3.4990    -1.6970    -0.6840 h1         1 R39       0.035200
     48 HAK         -1.3480    -5.5340    -1.4900 ha         1 R39       0.142500
     49 HAI         -1.9470    -6.6270    -3.6170 ha         1 R39       0.148000
     50 HAJ         -3.3590    -1.9740    -2.7480 ha         1 R39       0.142500
     51 HAH         -3.9600    -3.0640    -4.8760 ha         1 R39       0.148000
     52 HNAV        -4.2000    -5.3160    -6.0330 hn         1 R39       0.316500
     53 HNAW        -3.7440    -6.8990    -7.6900 hn         1 R39       0.325500
     54 HAN         -0.2440    -7.9100    -6.5420 ha         1 R39       0.203000
     55 HAC          0.9250   -10.4920    -6.0270 hc         1 R39       0.039700
     56 HACA         2.0340   -11.5340    -6.9300 hc         1 R39       0.039700
     57 HACB         0.2860   -11.7180    -7.1310 hc         1 R39       0.039700
     58 HAD          1.4270    -9.9930   -10.2350 hc         1 R39       0.039700
     59 HADA         0.7410   -11.4940    -9.5990 hc         1 R39       0.039700
     60 HADB         2.4530   -11.1270    -9.3460 hc         1 R39       0.039700
     61 HAB          3.1550    -9.3480    -7.9320 hc         1 R39       0.039700
     62 HABA         2.0460    -8.0960    -8.5090 hc         1 R39       0.039700
     63 HABB         2.0440    -8.5610    -6.8020 hc         1 R39       0.039700
     64 HAL         -4.7100    -8.4160    -8.0160 ha         1 R39       0.146500
     65 HAF         -6.7660    -8.3760    -9.3750 ha         1 R39       0.137000
     66 HAA         -7.4260    -7.7040   -12.0180 hc         1 R39       0.045033
     67 HAAA        -6.7590    -8.9600   -13.0710 hc         1 R39       0.045033
     68 HAAB        -7.7050    -9.4110   -11.6460 hc         1 R39       0.045033
     69 HAG         -4.4610    -9.0720   -12.9020 ha         1 R39       0.137000
     70 HAM         -2.3990    -9.1110   -11.5530 ha         1 R39       0.146500
@<TRIPOS>BOND
     1     2     1 1
     2     1     6 1
     3     1    36 1
     4     1    37 1
     5     2     3 1
     6     2    38 1
     7     2    39 1
     8     3     4 1
     9     5     4 1
    10     4    40 1
    11     4    41 1
    12     6     5 1
    13     5    42 1
    14     5    43 1
    15     7     6 1
    16     7     8 1
    17     7    44 1
    18     7    45 1
    19     8     9 1
    20     8    46 1
    21     8    47 1
    22     9    10 1
    23    13    10 ar
    24    10    11 ar
    25    11    12 ar
    26    11    48 1
    27    15    12 ar
    28    12    49 1
    29    13    14 ar
    30    13    50 1
    31    14    15 ar
    32    14    51 1
    33    15    16 1
    34    16    17 1
    35    16    52 1
    36    18    17 2
    37    17    19 1
    38    19    20 1
    39    19    53 1
    40    20    21 2
    41    20    28 1
    42    21    22 1
    43    21    54 1
    44    22    27 2
    45    22    23 1
    46    25    23 1
    47    23    24 1
    48    23    26 1
    49    24    55 1
    50    24    56 1
    51    24    57 1
    52    25    58 1
    53    25    59 1
    54    25    60 1
    55    26    61 1
    56    26    62 1
    57    26    63 1
    58    28    27 1
    59    28    29 1
    60    30    29 ar
    61    29    35 ar
    62    30    31 ar
    63    30    64 1
    64    31    32 ar
    65    31    65 1
    66    32    33 1
    67    32    34 ar
    68    33    66 1
    69    33    67 1
    70    33    68 1
    71    35    34 ar
    72    34    69 1
    73    35    70 1
@<TRIPOS>SUBSTRUCTURE
     1 R39         1 TEMP              0 ****  ****    0 ROOT
