@<TRIPOS>MOLECULE
R3S
   32    33     1     0     0
SMALL
bcc


@<TRIPOS>ATOM
      1 C01         0.3370   -0.1290    0.3950 ca        1 R3S     -0.188500
      2 C02         1.2250   -1.1860    0.5560 ca        1 R3S     -0.084000
      3 C03         2.3570   -1.0660    1.3800 ca        1 R3S     -0.074800
      4 C04         2.5790    0.1430    2.0550 ca        1 R3S     -0.084000
      5 C05         1.6990    1.2110    1.9080 ca        1 R3S     -0.188500
      6 C06         0.5810    1.0740    1.0760 ca        1 R3S      0.111100
      7 C07         3.2420   -2.2100    1.5240 ce        1 R3S     -0.126200
      8 C08         4.5500   -2.2190    1.8100 cf        1 R3S     -0.076200
      9 C09         5.4380   -1.0810    2.0350 ca        1 R3S     -0.021800
     10 C10         6.0640   -0.4700    0.9410 ca        1 R3S     -0.225000
     11 C11         6.9560    0.5830    1.1850 ca        1 R3S      0.152100
     12 C12         7.2310    1.0390    2.4760 ca        1 R3S     -0.321000
     13 C13         6.5990    0.4140    3.5700 ca        1 R3S      0.314100
     14 C14         5.7000   -0.6560    3.3360 ca        1 R3S     -0.239000
     15 O15         6.7810    0.8120    4.8270 os        1 R3S     -0.514800
     16 O16         7.5490    1.1540    0.0750 oh        1 R3S     -0.523100
     17 O17        -0.3330    2.0890    0.8850 oh        1 R3S     -0.511100
     18 S18         8.1090    1.6940    5.6080 s6        1 R3S      1.721300
     19 O19         8.4050    2.6690    4.6670 o         1 R3S     -0.733867
     20 O20         7.4490    2.1120    6.7480 o         1 R3S     -0.733867
     21 O21         9.0480    0.6890    5.7540 o         1 R3S     -0.733867
     22 H10         5.8660   -0.7980   -0.0860 ha        1 R3S      0.133000
     23 H01        -0.5440   -0.2180   -0.2530 ha        1 R3S      0.137000
     24 H02         1.0400   -2.1310    0.0240 ha        1 R3S      0.147500
     25 H12         7.9250    1.8760    2.6520 ha        1 R3S      0.178000
     26 H04         3.4650    0.2500    2.7070 ha        1 R3S      0.147500
     27 H14         5.2210   -1.1380    4.1980 ha        1 R3S      0.139000
     28 H05         1.8860    2.1560    2.4390 ha        1 R3S      0.137000
     29 HO16        8.1370    1.8550    0.3930 ho        1 R3S      0.416000
     30 H07         2.7380   -3.1820    1.3620 ha        1 R3S      0.108000
     31 HO17       -0.0240    2.8570    1.3870 ho        1 R3S      0.416000
     32 H08         5.0680   -3.1940    1.8910 ha        1 R3S      0.120000
@<TRIPOS>BOND
     1    1    2 ar  
     2    1    6 ar  
     3    1   23 1   
     4    2    3 ar  
     5    2   24 1   
     6    3    4 ar  
     7    3    7 1   
     8    4    5 ar  
     9    4   26 1   
    10    5    6 ar  
    11    5   28 1   
    12    6   17 1   
    13    7    8 2   
    14    7   30 1   
    15    8    9 1   
    16    8   32 1   
    17    9   10 ar  
    18    9   14 ar  
    19   10   11 ar  
    20   10   22 1   
    21   11   12 ar  
    22   11   16 1   
    23   12   13 ar  
    24   12   25 1   
    25   13   14 ar  
    26   13   15 1   
    27   14   27 1   
    28   15   18 1   
    29   16   29 1   
    30   17   31 1   
    31   18   19 1   
    32   18   20 1   
    33   18   21 1   
@<TRIPOS>SUBSTRUCTURE
     1 R3S         1 TEMP              0 ****  ****    0 ROOT
