@<TRIPOS>MOLECULE
molecule
   32    33     1     0     0
SMALL
bcc


@<TRIPOS>ATOM
      1 C01          0.0000     0.0000     0.0000 ca         1 R3S      -0.151000
      2 C02          1.3790     0.0000     0.0000 ca         1 R3S      -0.115500
      3 C03          2.0760     0.0000     1.2120 ca         1 R3S      -0.039800
      4 C04          1.3710     0.0000     2.4180 ca         1 R3S      -0.115500
      5 C05         -0.0080    -0.0000     2.4090 ca         1 R3S      -0.151000
      6 C06         -0.6960     0.0050     1.2020 ca         1 R3S       0.085100
      7 C07          3.5490    -0.0010     1.2170 ce         1 R3S      -0.157200
      8 C08          4.2170    -0.0010     2.3810 cf         1 R3S      -0.059200
      9 C09          5.6900    -0.0010     2.3860 ca         1 R3S      -0.063800
     10 C10          6.3950    -0.0020     1.1800 ca         1 R3S      -0.159000
     11 C11          7.7790    -0.0030     1.1890 ca         1 R3S       0.100100
     12 C12          8.4670    -0.0020     2.3950 ca         1 R3S      -0.142000
     13 C13          7.7720    -0.0010     3.5960 ca         1 R3S       0.190100
     14 C14          6.3870     0.0050     3.5960 ca         1 R3S      -0.117000
     15 O15          8.4510    -0.0010     4.7730 os         1 R3S      -0.506800
     16 O16          8.4660    -0.0040     0.0170 oh         1 R3S      -0.523100
     17 O17         -2.0540     0.0110     1.1980 oh         1 R3S      -0.529100
     18 S18          8.7610     1.3890     5.3090 s6         1 R3S       1.542300
     19 O19          9.0930     2.1880     4.1820 o          1 R3S      -0.720533
     20 O20          7.4650     1.9540     5.8720 o          1 R3S      -0.720533
     21 O21          9.6340     1.2070     6.4160 o          1 R3S      -0.720533
     22 H10          5.8590    -0.0020     0.2390 ha         1 R3S       0.128000
     23 H01         -0.5410    -0.0140    -0.9380 ha         1 R3S       0.133500
     24 H02          1.9200     0.0550    -0.9370 ha         1 R3S       0.138000
     25 H12          9.5500    -0.0050     2.3980 ha         1 R3S       0.152000
     26 H04          1.9070    -0.0490     3.3580 ha         1 R3S       0.138000
     27 H14          5.8450     0.0060     4.5340 ha         1 R3S       0.162000
     28 H05         -0.5550    -0.0130     3.3440 ha         1 R3S       0.133500
     29 HO16         8.7630    -0.8780    -0.1730 ho         1 R3S       0.405000
     30 H07          4.0930    -0.0020     0.2800 ha         1 R3S       0.136000
     31 HO17        -2.3650     0.9000     1.1520 ho         1 R3S       0.413000
     32 H08          3.6720     0.0000     3.3180 ha         1 R3S       0.134000
@<TRIPOS>BOND
     1     2     1 ar
     2     1    23 1
     3     1     6 ar
     4     3     2 ar
     5    24     2 1
     6     7     3 1
     7     3     4 ar
     8    26     4 1
     9     4     5 ar
    10     5    28 1
    11     5     6 ar
    12     6    17 1
    13     8     7 2
    14    30     7 1
    15     9     8 1
    16     8    32 1
    17    14     9 ar
    18    10     9 ar
    19    11    10 ar
    20    10    22 1
    21    12    11 ar
    22    16    11 1
    23    25    12 1
    24    12    13 ar
    25    15    13 1
    26    13    14 ar
    27    14    27 1
    28    15    18 1
    29    29    16 1
    30    17    31 1
    31    21    18 1
    32    18    19 1
    33    18    20 1
@<TRIPOS>SUBSTRUCTURE
     1 R3S         1 TEMP              0 ****  ****    0 ROOT
