@<TRIPOS>MOLECULE
molecule
    7     6     1     0     0
SMALL
bcc


@<TRIPOS>ATOM
      1 C1           0.0000     0.0000     0.0000 c          1 R3W       0.881600
      2 O1           1.3420     0.0000     0.0000 o          1 R3W      -0.832800
      3 Cl1         -2.5260     0.0010     0.9760 cl         1 R3W      -0.269400
      4 C2          -0.7540     0.0000     1.3050 c3         1 R3W      -0.035000
      5 O2          -0.6050     0.0040    -1.0460 o          1 R3W      -0.832800
      6 H2          -0.4920    -0.8850     1.8730 h1         1 R3W       0.044700
      7 H2A         -0.4920     0.8840     1.8740 h1         1 R3W       0.044700
@<TRIPOS>BOND
     1     5     1 1
     2     1     4 1
     3     1     2 1
     4     4     3 1
     5     4     6 1
     6     4     7 1
@<TRIPOS>SUBSTRUCTURE
     1 R3W         1 TEMP              0 ****  ****    0 ROOT
