@<TRIPOS>MOLECULE
R3W
    7     6     1     0     0
SMALL
bcc


@<TRIPOS>ATOM
      1 C1          0.0430   -0.0460   -0.0360 c         1 R3W      0.911600
      2 O1          1.0890   -0.7460    0.0500 o         1 R3W     -0.829300
      3 CL1        -2.0540   -1.0810    1.4270 cl        1 R3W     -0.272400
      4 C2         -0.7920    0.1460    1.2450 c3        1 R3W     -0.055000
      5 O2         -0.3420    0.5540   -1.0770 o         1 R3W     -0.829300
      6 H2         -0.1490    0.0540    2.1490 h1        1 R3W      0.036700
      7 H2A        -1.3220    1.1240    1.2240 h1        1 R3W      0.036700
@<TRIPOS>BOND
     1    1    2 1   
     2    1    4 1   
     3    1    5 1   
     4    3    4 1   
     5    4    6 1   
     6    4    7 1   
@<TRIPOS>SUBSTRUCTURE
     1 R3W         1 TEMP              0 ****  ****    0 ROOT
