@<TRIPOS>MOLECULE
R3X
   48    50     1     0     0
SMALL
bcc


@<TRIPOS>ATOM
      1 CAB        -1.4710    0.5330    1.3170 ca        1 R3X     -0.089000
      2 CAA        -1.7710    1.8920    1.3240 ca        1 R3X     -0.187500
      3 CAF        -2.5800    2.4120    2.3490 ca        1 R3X      0.160100
      4 OAP        -2.8930    3.7440    2.2930 oh        1 R3X     -0.530100
      5 CAE        -3.0270    1.5830    3.3920 ca        1 R3X     -0.187500
      6 CAD        -2.7070    0.2340    3.3730 ca        1 R3X     -0.089000
      7 CAC        -1.9620   -0.3140    2.3170 ca        1 R3X     -0.133800
      8 CAG        -1.7340   -1.7510    2.2420 ce        1 R3X     -0.069200
      9 CAH        -2.6840   -2.6830    2.0870 cf        1 R3X     -0.137200
     10 CAI        -4.1150   -2.4280    1.9310 ca        1 R3X      0.003200
     11 CAN        -4.8940   -2.0020    3.0080 ca        1 R3X     -0.150000
     12 CAJ        -4.7030   -2.6090    0.6720 ca        1 R3X     -0.227000
     13 CAK        -6.0640   -2.3330    0.5010 ca        1 R3X      0.132100
     14 OAO        -6.7000   -2.5060   -0.7120 oh        1 R3X     -0.507100
     15 CAL        -6.8610   -1.8740    1.5600 ca        1 R3X     -0.198000
     16 CAM        -6.2530   -1.7060    2.8080 ca        1 R3X      0.164100
     17 O1         -6.9780   -1.3410    3.9320 os        1 R3X     -0.328900
     18 C1         -7.7450   -0.1420    3.8080 c3        1 R3X      0.337900
     19 C2         -8.9490   -0.3030    4.7610 c3        1 R3X      0.115100
     20 C3         -9.5750    1.0690    5.0510 c3        1 R3X      0.101100
     21 C4         -8.4850    2.0510    5.4960 c3        1 R3X      0.107100
     22 C5         -7.3970    2.1230    4.4160 c3        1 R3X     -0.009900
     23 C6         -6.2750    3.1280    4.8080 c         1 R3X      0.944600
     24 O2         -9.8860   -1.1390    4.0990 oh        1 R3X     -0.604800
     25 O3        -10.5570    0.8670    6.0590 oh        1 R3X     -0.628800
     26 O4         -9.1290    3.2970    5.6940 oh        1 R3X     -0.647800
     27 O5         -6.8150    0.8280    4.2600 os        1 R3X     -0.395600
     28 O6A        -6.4030    3.7240    5.9140 o         1 R3X     -0.833300
     29 O6B        -5.3540    3.3490    3.9800 o         1 R3X     -0.833300
     30 HAB        -0.8620    0.1170    0.5010 ha        1 R3X      0.121500
     31 HAA        -1.4040    2.5570    0.5310 ha        1 R3X      0.165500
     32 HAP        -3.6260    3.9070    2.9220 ho        1 R3X      0.481000
     33 HAE        -3.6830    2.0030    4.1790 ha        1 R3X      0.165500
     34 HAD        -3.0580   -0.4140    4.1900 ha        1 R3X      0.121500
     35 HAG        -0.6750   -2.0590    2.3060 ha        1 R3X      0.112000
     36 HAH        -2.4070   -3.7510    2.0350 ha        1 R3X      0.117000
     37 HAN        -4.4640   -1.8770    4.0120 ha        1 R3X      0.155000
     38 HAJ        -4.0940   -2.9430   -0.1780 ha        1 R3X      0.126000
     39 HAO        -6.0220   -2.7150   -1.3690 ho        1 R3X      0.410000
     40 HAL        -7.9260   -1.6610    1.4040 ha        1 R3X      0.159000
     41 H1         -8.0760    0.0620    2.7560 h2        1 R3X      0.060700
     42 H2         -8.6160   -0.7870    5.7190 h1        1 R3X      0.070700
     43 H3        -10.0920    1.4590    4.1290 h1        1 R3X      0.052700
     44 HA        -10.6680   -1.1600    4.6650 ho        1 R3X      0.412000
     45 H4         -8.0230    1.7110    6.4640 h1        1 R3X      0.065700
     46 HB        -10.7070    1.7290    6.4670 ho        1 R3X      0.425000
     47 H5         -7.8420    2.4580    3.4390 h1        1 R3X      0.041700
     48 HC         -8.4290    3.9270    5.9430 ho        1 R3X      0.459000
@<TRIPOS>BOND
     1    1    2 ar  
     2    1    7 ar  
     3    1   30 1   
     4    2    3 ar  
     5    2   31 1   
     6    3    4 1   
     7    3    5 ar  
     8    4   32 1   
     9    5    6 ar  
    10    5   33 1   
    11    6    7 ar  
    12    6   34 1   
    13    7    8 1   
    14    8    9 2   
    15    8   35 1   
    16    9   10 1   
    17    9   36 1   
    18   10   11 ar  
    19   10   12 ar  
    20   11   16 ar  
    21   11   37 1   
    22   12   13 ar  
    23   12   38 1   
    24   13   14 1   
    25   13   15 ar  
    26   14   39 1   
    27   15   16 ar  
    28   15   40 1   
    29   16   17 1   
    30   17   18 1   
    31   18   19 1   
    32   18   27 1   
    33   18   41 1   
    34   19   20 1   
    35   19   24 1   
    36   19   42 1   
    37   20   21 1   
    38   20   25 1   
    39   20   43 1   
    40   21   22 1   
    41   21   26 1   
    42   21   45 1   
    43   22   23 1   
    44   22   27 1   
    45   22   47 1   
    46   23   28 1   
    47   23   29 1   
    48   24   44 1   
    49   25   46 1   
    50   26   48 1   
@<TRIPOS>SUBSTRUCTURE
     1 R3X         1 TEMP              0 ****  ****    0 ROOT
