@<TRIPOS>MOLECULE
molecule
   48    50     1     0     0
SMALL
bcc


@<TRIPOS>ATOM
      1 CAB          0.0000     0.0000     0.0000 ca         1 R3X      -0.113000
      2 CAA          1.3780     0.0000     0.0000 ca         1 R3X      -0.151000
      3 CAF          2.0740     0.0000     1.2020 ca         1 R3X       0.091100
      4 OAP          3.4330     0.0010     1.1960 oh         1 R3X      -0.527100
      5 CAE          1.3860     0.0010     2.4080 ca         1 R3X      -0.151000
      6 CAD          0.0090    -0.0010     2.4190 ca         1 R3X      -0.113000
      7 CAC         -0.6970    -0.0010     1.2120 ca         1 R3X      -0.046800
      8 CAG         -2.1700    -0.0000     1.2170 ce         1 R3X      -0.139200
      9 CAH         -2.8380    -0.0000     2.3820 cf         1 R3X      -0.077200
     10 CAI         -4.3120     0.0000     2.3880 ca         1 R3X      -0.030800
     11 CAN         -5.0080     0.0000     3.5980 ca         1 R3X      -0.166000
     12 CAJ         -5.0170     0.0060     1.1820 ca         1 R3X      -0.215000
     13 CAK         -6.4010     0.0070     1.1930 ca         1 R3X       0.148100
     14 OAO         -7.0890     0.0120     0.0200 oh         1 R3X      -0.518100
     15 CAL         -7.0880     0.0010     2.3980 ca         1 R3X      -0.191000
     16 CAM         -6.3920     0.0010     3.5980 ca         1 R3X       0.177100
     17 O1          -7.0710     0.0000     4.7760 os         1 R3X      -0.314900
     18 C1          -8.4980     0.0010     4.7030 c3         1 R3X       0.331900
     19 C2          -9.0820    -0.1250     6.1110 c3         1 R3X       0.117100
     20 C3         -10.6100    -0.0640     6.0300 c3         1 R3X       0.099100
     21 C4         -11.0220     1.2430     5.3450 c3         1 R3X       0.127100
     22 C5         -10.3630     1.3160     3.9650 c3         1 R3X       0.037100
     23 C6         -10.7150     2.6260     3.3090 c          1 R3X       0.899600
     24 O2          -8.6850    -1.3730     6.6840 oh         1 R3X      -0.608800
     25 O3         -11.1610    -0.1060     7.3480 oh         1 R3X      -0.614800
     26 O4         -12.4420     1.2780     5.1990 oh         1 R3X      -0.567800
     27 O5          -8.9440     1.2220     4.1110 os         1 R3X      -0.402600
     28 O6A        -11.9900     2.8910     2.9800 o          1 R3X      -0.813800
     29 O6B         -9.8510     3.4380     3.0780 o          1 R3X      -0.813800
     30 HAB         -0.5420     0.0000    -0.9380 ha         1 R3X       0.137500
     31 HAA          1.9180     0.0000    -0.9390 ha         1 R3X       0.135000
     32 HAP          3.7460     0.8890     1.1450 ho         1 R3X       0.414000
     33 HAE          1.9340     0.0010     3.3430 ha         1 R3X       0.135000
     34 HAD         -0.5270    -0.0000     3.3610 ha         1 R3X       0.137500
     35 HAG         -2.7150     0.0000     0.2810 ha         1 R3X       0.138000
     36 HAH         -2.2930    -0.0000     3.3190 ha         1 R3X       0.129000
     37 HAN         -4.4660    -0.0000     4.5360 ha         1 R3X       0.137000
     38 HAJ         -4.4820    -0.0570     0.2420 ha         1 R3X       0.128000
     39 HAO         -6.8680     0.7870    -0.4700 ho         1 R3X       0.423000
     40 HAL         -8.1720     0.0030     2.4010 ha         1 R3X       0.177000
     41 H1          -8.8330    -0.8340     4.0990 h2         1 R3X       0.039700
     42 H2          -8.7210     0.6910     6.7250 h1         1 R3X       0.064700
     43 H3         -10.9750    -0.9040     5.4520 h1         1 R3X       0.051700
     44 HA          -8.3880    -1.2320     7.5680 ho         1 R3X       0.403000
     45 H4         -10.6940     2.0830     5.9450 h1         1 R3X       0.055700
     46 HB         -11.7440    -0.8440     7.4210 ho         1 R3X       0.401000
     47 H5         -10.7160     0.4940     3.3540 h1         1 R3X       0.042700
     48 HC         -12.8110     1.8520     5.8500 ho         1 R3X       0.399000
@<TRIPOS>BOND
     1     1     2 ar
     2     1     7 ar
     3     2     3 ar
     4     3     4 1
     5     3     5 ar
     6     5     6 ar
     7     6     7 ar
     8     7     8 1
     9     8     9 2
    10     9    10 1
    11    10    11 ar
    12    10    12 ar
    13    11    16 ar
    14    12    13 ar
    15    13    14 1
    16    13    15 ar
    17    15    16 ar
    18    16    17 1
    19    17    18 1
    20    18    19 1
    21    18    27 1
    22    19    20 1
    23    19    24 1
    24    20    21 1
    25    20    25 1
    26    21    22 1
    27    21    26 1
    28    22    23 1
    29    22    27 1
    30    23    28 1
    31    23    29 1
    32     1    30 1
    33     2    31 1
    34     4    32 1
    35     5    33 1
    36     6    34 1
    37     8    35 1
    38     9    36 1
    39    11    37 1
    40    12    38 1
    41    14    39 1
    42    15    40 1
    43    18    41 1
    44    19    42 1
    45    20    43 1
    46    24    44 1
    47    21    45 1
    48    25    46 1
    49    22    47 1
    50    26    48 1
@<TRIPOS>SUBSTRUCTURE
     1 R3X         1 TEMP              0 ****  ****    0 ROOT
