@<TRIPOS>MOLECULE
R3Z
   35    38     1     0     0
SMALL
bcc


@<TRIPOS>ATOM
      1 C1           0.0000     0.0000     0.0000 ca         1 R3Z      -0.099000
      2 C2           1.3820     0.0000     0.0000 ca         1 R3Z      -0.101000
      3 C3           2.0770     0.0000     1.1940 ca         1 R3Z      -0.102000
      4 C4           1.3880    -0.0010     2.3980 ca         1 R3Z       0.066100
      5 C5          -0.0020    -0.0030     2.4000 ca         1 R3Z       0.069100
      6 C6          -0.6920    -0.0010     1.1970 ca         1 R3Z      -0.100000
      7 O7          -0.6970    -0.0110     3.5700 os         1 R3Z      -0.291900
      8 C8           0.0220     0.3680     4.7470 c3         1 R3Z       0.181400
      9 C9           1.3670    -0.3700     4.7470 c3         1 R3Z       0.109100
     10 O10          2.0860     0.0060     3.5670 os         1 R3Z      -0.304900
     11 C11          2.1720     0.0220     5.9880 c3         1 R3Z       0.033000
     12 N12          3.4550    -0.6850     5.9820 n          1 R3Z       0.073000
     13 C13          4.5670    -0.1020     5.3610 cc         1 R3Z      -0.058400
     14 C14          4.6820     1.1170     4.7020 cc         1 R3Z      -0.149000
     15 C15          5.8880     1.3940     4.2120 cd         1 R3Z       0.022900
     16 S16          6.9920     0.1380     4.5400 ss         1 R3Z      -0.120800
     17 C17          5.7630    -0.7990     5.3770 cd         1 R3Z      -0.145700
     18 C18          5.8180    -2.0650     6.0120 c          1 R3Z       0.653100
     19 O19          6.8620    -2.6930     6.0350 o          1 R3Z      -0.634500
     20 N20          4.7120    -2.5700     6.5910 n          1 R3Z       0.061100
     21 C21          3.5570    -1.8850     6.5760 c          1 R3Z       0.586500
     22 O22          2.5750    -2.3660     7.1110 o          1 R3Z      -0.698500
     23 O23          4.7680    -3.8350     7.2240 oh         1 R3Z      -0.402100
     24 H1          -0.5410     0.0000    -0.9380 ha         1 R3Z       0.107000
     25 H2           1.9220     0.0010    -0.9390 ha         1 R3Z       0.107000
     26 H3           3.1600    -0.0000     1.1910 ha         1 R3Z       0.115000
     27 H6          -1.7750    -0.0010     1.1950 ha         1 R3Z       0.116000
     28 H8           0.1940     1.4380     4.7410 h1         1 R3Z       0.026700
     29 H8A         -0.5460     0.0890     5.6260 h1         1 R3Z       0.026700
     30 H9           1.1940    -1.4390     4.7410 h1         1 R3Z       0.054700
     31 H11          1.6170    -0.2450     6.8780 h1         1 R3Z       0.052700
     32 H11A         2.3500     1.0910     5.9800 h1         1 R3Z       0.052700
     33 H14          3.8450     1.7960     4.5940 ha         1 R3Z       0.135000
     34 H15          6.1350     2.3010     3.6740 h4         1 R3Z       0.154000
     35 HO23         5.0250    -3.7240     8.1250 ho         1 R3Z       0.405000
@<TRIPOS>BOND
     1     1     2 ar  
     2     1     6 ar  
     3     1    24 1   
     4     2     3 ar  
     5     2    25 1   
     6     3     4 ar  
     7     3    26 1   
     8     4     5 ar  
     9     4    10 1   
    10     5     6 ar  
    11     5     7 1   
    12     6    27 1   
    13     7     8 1   
    14     8     9 1   
    15     8    28 1   
    16     8    29 1   
    17     9    10 1   
    18     9    11 1   
    19     9    30 1   
    20    11    12 1   
    21    11    31 1   
    22    11    32 1   
    23    12    13 1   
    24    12    21 1   
    25    13    14 1   
    26    13    17 2   
    27    14    15 2   
    28    14    33 1   
    29    15    16 1   
    30    15    34 1   
    31    16    17 1   
    32    17    18 1   
    33    18    19 2   
    34    18    20 1   
    35    20    21 1   
    36    20    23 1   
    37    21    22 2   
    38    23    35 1   
@<TRIPOS>SUBSTRUCTURE
     1 R3Z         1 TEMP              0 ****  ****    0 ROOT
