@<TRIPOS>MOLECULE
molecule
   35    38     1     0     0
SMALL
bcc


@<TRIPOS>ATOM
      1 C1           0.0000     0.0000     0.0000 ca         1 R3Z      -0.128000
      2 C2           1.3820     0.0000     0.0000 ca         1 R3Z      -0.128000
      3 C3           2.0770     0.0000     1.1940 ca         1 R3Z      -0.122000
      4 C4           1.3880    -0.0010     2.3980 ca         1 R3Z       0.062100
      5 C5          -0.0020    -0.0030     2.4000 ca         1 R3Z       0.061100
      6 C6          -0.6920    -0.0010     1.1970 ca         1 R3Z      -0.121000
      7 O7          -0.6970    -0.0110     3.5700 os         1 R3Z      -0.314900
      8 C8           0.0220     0.3680     4.7470 c3         1 R3Z       0.108400
      9 C9           1.3670    -0.3700     4.7470 c3         1 R3Z       0.081100
     10 O10          2.0860     0.0060     3.5670 os         1 R3Z      -0.325900
     11 C11          2.1720     0.0220     5.9880 c3         1 R3Z       0.126000
     12 N12          3.4550    -0.6850     5.9820 n          1 R3Z      -0.342000
     13 C13          4.5670    -0.1020     5.3610 cc         1 R3Z       0.091600
     14 C14          4.6820     1.1170     4.7020 cc         1 R3Z      -0.176000
     15 C15          5.8880     1.3940     4.2120 cd         1 R3Z      -0.084100
     16 S16          6.9920     0.1380     4.5400 ss         1 R3Z       0.049200
     17 C17          5.7630    -0.7990     5.3770 cd         1 R3Z      -0.209700
     18 C18          5.8180    -2.0650     6.0120 c          1 R3Z       0.749100
     19 O19          6.8620    -2.6930     6.0350 o          1 R3Z      -0.600500
     20 N20          4.7120    -2.5700     6.5910 n          1 R3Z      -0.343900
     21 C21          3.5570    -1.8850     6.5760 c          1 R3Z       0.818500
     22 O22          2.5750    -2.3660     7.1110 o          1 R3Z      -0.645500
     23 O23          4.7680    -3.8350     7.2240 oh         1 R3Z      -0.315100
     24 H1          -0.5410     0.0000    -0.9380 ha         1 R3Z       0.137000
     25 H2           1.9220     0.0010    -0.9390 ha         1 R3Z       0.136000
     26 H3           3.1600    -0.0000     1.1910 ha         1 R3Z       0.145000
     27 H6          -1.7750    -0.0010     1.1950 ha         1 R3Z       0.146000
     28 H8           0.1940     1.4380     4.7410 h1         1 R3Z       0.068700
     29 H8A         -0.5460     0.0890     5.6260 h1         1 R3Z       0.068700
     30 H9           1.1940    -1.4390     4.7410 h1         1 R3Z       0.089700
     31 H11          1.6170    -0.2450     6.8780 h1         1 R3Z       0.082700
     32 H11A         2.3500     1.0910     5.9800 h1         1 R3Z       0.082700
     33 H14          3.8450     1.7960     4.5940 ha         1 R3Z       0.160000
     34 H15          6.1350     2.3010     3.6740 h4         1 R3Z       0.182000
     35 HO23         5.0250    -3.7240     8.1250 ho         1 R3Z       0.411000
@<TRIPOS>BOND
     1     1     2 ar
     2     1     6 ar
     3     2     3 ar
     4     3     4 ar
     5     4     5 ar
     6     4    10 1
     7     5     6 ar
     8     5     7 1
     9     7     8 1
    10     8     9 1
    11     9    10 1
    12     9    11 1
    13    11    12 1
    14    12    13 1
    15    12    21 1
    16    13    14 1
    17    13    17 2
    18    14    15 2
    19    15    16 1
    20    16    17 1
    21    17    18 1
    22    18    19 2
    23    18    20 1
    24    20    21 1
    25    20    23 1
    26    21    22 2
    27     1    24 1
    28     2    25 1
    29     3    26 1
    30     6    27 1
    31     8    28 1
    32     8    29 1
    33     9    30 1
    34    11    31 1
    35    11    32 1
    36    14    33 1
    37    15    34 1
    38    23    35 1
@<TRIPOS>SUBSTRUCTURE
     1 R3Z         1 TEMP              0 ****  ****    0 ROOT
