@<TRIPOS>MOLECULE
molecule
   42    42     1     0     0
SMALL
bcc


@<TRIPOS>ATOM
      1 N            0.0000     0.0000     0.0000 n2         1 R40      -0.786100
      2 C            1.3040     0.0000     0.0000 c2         1 R40       0.680100
      3 O3           4.9400    -0.3090     7.1740 o          1 R40      -0.615000
      4 C6           4.4670    -1.3040     6.6620 c          1 R40       0.745100
      5 O2           5.1680    -2.4540     6.6540 os         1 R40      -0.451900
      6 C7           6.4790    -2.4320     7.2750 c3         1 R40       0.214700
      7 C8           7.1080    -3.7980     7.1710 ca         1 R40      -0.089300
      8 C13          7.8880    -4.1170     6.0740 ca         1 R40      -0.104500
      9 C12          8.4640    -5.3700     5.9780 ca         1 R40      -0.137000
     10 C11          8.2600    -6.3030     6.9780 ca         1 R40      -0.125000
     11 C10          7.4800    -5.9840     8.0730 ca         1 R40      -0.137000
     12 C9           6.9090    -4.7290     8.1730 ca         1 R40      -0.104500
     13 N3           3.2420    -1.2550     6.1010 ns         1 R40      -0.547900
     14 C4           2.4810    -0.0050     6.1100 c3         1 R40       0.082700
     15 C5           1.7320     0.1180     7.4120 c          1 R40       0.883600
     16 O1           1.8240    -0.7510     8.2460 o          1 R40      -0.813300
     17 C3           1.4870    -0.0040     4.9470 c3         1 R40      -0.248400
     18 C2           2.2530    -0.0020     3.6210 c3         1 R40      -0.072400
     19 C1           1.2580    -0.0010     2.4590 c3         1 R40       0.238800
     20 N2           1.9910     0.0000     1.1900 nu         1 R40      -0.842200
     21 N1           1.9910     0.0010    -1.1910 nz         1 R40      -0.809600
     22 H1          -0.5010     0.0000    -0.8660 hn         1 R40       0.426400
     23 H3           6.3790    -2.1590     8.3190 h1         1 R40       0.054700
     24 H4           7.1060    -1.7060     6.7710 h1         1 R40       0.054700
     25 H5           8.0470    -3.3860     5.2920 ha         1 R40       0.135500
     26 H6           9.0750    -5.6210     5.1200 ha         1 R40       0.126500
     27 H7           8.7100    -7.2850     6.9010 ha         1 R40       0.125000
     28 H8           7.3230    -6.7150     8.8570 ha         1 R40       0.126500
     29 H9           6.2980    -4.4780     9.0320 ha         1 R40       0.135500
     30 H10          2.8400    -2.0830     5.7080 hn         1 R40       0.314500
     31 H11          3.1610     0.8320     6.0050 h1         1 R40       0.051700
     32 H13          2.1410     0.8450     5.1060 hc         1 R40       0.121200
     33 H14          0.5030     0.4420     5.0240 hc         1 R40       0.121200
     34 H15          2.8760    -0.8860     3.5630 hc         1 R40       0.034700
     35 H16          2.8750     0.8830     3.5650 hc         1 R40       0.034700
     36 H17          0.6350    -0.8860     2.5160 h1         1 R40       0.078200
     37 H18          0.6350     0.8830     2.5170 h1         1 R40       0.078200
     38 H19          2.9910    -0.0180     1.1900 hn         1 R40       0.451800
     39 H20          1.3450    -0.0900    -1.9500 hn         1 R40       0.460800
     40 H21          2.4960     0.8610    -1.2850 hn         1 R40       0.460800
     41 H131         2.6340    -0.7660    -1.2060 hn         1 R40       0.460800
     42 O            0.9610     1.1930     7.6440 o          1 R40      -0.813300
@<TRIPOS>BOND
     1     1     2 2
     2    21     2 1
     3     2    20 1
     4    18    19 1
     5    18    17 1
     6    19    20 1
     7    17    14 1
     8    13    14 1
     9    13     4 1
    10    14    15 1
    11     5     4 1
    12     5     6 1
    13     4     3 2
    14    11    12 ar
    15    11    10 ar
    16    12     7 ar
    17    10     9 ar
    18     9     8 ar
    19     7     8 ar
    20     7     6 1
    21    15    42 1
    22    15    16 1
    23     1    22 1
    24     6    23 1
    25     6    24 1
    26     8    25 1
    27     9    26 1
    28    10    27 1
    29    11    28 1
    30    12    29 1
    31    13    30 1
    32    14    31 1
    33    17    32 1
    34    17    33 1
    35    18    34 1
    36    18    35 1
    37    19    36 1
    38    19    37 1
    39    20    38 1
    40    21    39 1
    41    21    40 1
    42    41    21 1
@<TRIPOS>SUBSTRUCTURE
     1 R40         1 TEMP              0 ****  ****    0 ROOT
