@<TRIPOS>MOLECULE
R40
   42    42     1     0     0
SMALL
bcc


@<TRIPOS>ATOM
      1 N            0.0000     0.0000     0.0000 n2         1 R40      -0.652100
      2 C            1.3040     0.0000     0.0000 c2         1 R40       0.238100
      3 O3           4.9400    -0.3090     7.1740 o          1 R40      -0.662000
      4 C6           4.4670    -1.3040     6.6620 c          1 R40       0.674100
      5 O2           5.1680    -2.4540     6.6540 os         1 R40      -0.434900
      6 C7           6.4790    -2.4320     7.2750 c3         1 R40       0.297700
      7 C8           7.1080    -3.7980     7.1710 ca         1 R40      -0.106300
      8 C13          7.8880    -4.1170     6.0740 ca         1 R40      -0.077000
      9 C12          8.4640    -5.3700     5.9780 ca         1 R40      -0.111000
     10 C11          8.2600    -6.3030     6.9780 ca         1 R40      -0.100000
     11 C10          7.4800    -5.9840     8.0730 ca         1 R40      -0.111000
     12 C9           6.9090    -4.7290     8.1730 ca         1 R40      -0.077000
     13 N3           3.2420    -1.2550     6.1010 ns         1 R40      -0.148900
     14 C4           2.4810    -0.0050     6.1100 c3         1 R40      -0.001300
     15 C5           1.7320     0.1180     7.4120 c          1 R40       0.965600
     16 O1           1.8240    -0.7510     8.2460 o          1 R40      -0.864300
     17 C3           1.4870    -0.0040     4.9470 c3         1 R40      -0.248400
     18 C2           2.2530    -0.0020     3.6210 c3         1 R40       0.014600
     19 C1           1.2580    -0.0010     2.4590 c3         1 R40       0.156800
     20 N2           1.9910     0.0000     1.1900 nu         1 R40      -0.474200
     21 N1           1.9910     0.0010    -1.1910 nz         1 R40       0.197400
     22 H1          -0.5020    -0.0000     0.8660 hn         1 R40       0.393400
     23 H3           7.1060    -1.7060     6.7710 h1         1 R40       0.014200
     24 H4           6.3790    -2.1590     8.3190 h1         1 R40       0.014200
     25 H5           8.0470    -3.3860     5.2920 ha         1 R40       0.107500
     26 H6           9.0750    -5.6210     5.1200 ha         1 R40       0.099500
     27 H7           8.7100    -7.2850     6.9010 ha         1 R40       0.098000
     28 H8           7.3230    -6.7150     8.8570 ha         1 R40       0.099500
     29 H9           6.2980    -4.4780     9.0320 ha         1 R40       0.107500
     30 H10          2.8380    -2.0840     5.7110 hn         1 R40       0.166500
     31 H11          3.1610     0.8320     6.0050 h1         1 R40       0.035700
     32 H13          2.1410     0.8450     5.1060 hc         1 R40       0.101700
     33 H14          0.5030     0.4420     5.0240 hc         1 R40       0.101700
     34 H15          2.8760    -0.8860     3.5630 hc         1 R40       0.007700
     35 H16          2.8750     0.8830     3.5650 hc         1 R40       0.007700
     36 H17          0.6350     0.8830     2.5170 h1         1 R40       0.037700
     37 H18          0.6350    -0.8860     2.5160 h1         1 R40       0.037700
     38 H19          2.9920    -0.0090     1.1900 hn         1 R40       0.303800
     39 H20          2.5630    -0.8180    -1.2470 hn         1 R40       0.218467
     40 H21          2.5710     0.8160    -1.2410 hn         1 R40       0.218467
     41 H131         1.3410     0.0070    -1.9520 hn         1 R40       0.218467
     42 O            0.9610     1.1930     7.6440 o          1 R40      -0.864300
@<TRIPOS>BOND
     1     1     2 2   
     2     1    22 1   
     3     2    20 1   
     4     2    21 1   
     5     3     4 2   
     6     4     5 1   
     7     4    13 1   
     8     5     6 1   
     9     6     7 1   
    10     6    23 1   
    11     6    24 1   
    12     7     8 ar  
    13     7    12 ar  
    14     8     9 ar  
    15     8    25 1   
    16     9    10 ar  
    17     9    26 1   
    18    10    11 ar  
    19    10    27 1   
    20    11    12 ar  
    21    11    28 1   
    22    12    29 1   
    23    13    14 1   
    24    13    30 1   
    25    14    15 1   
    26    14    17 1   
    27    14    31 1   
    28    15    16 1   
    29    15    42 1   
    30    17    18 1   
    31    17    32 1   
    32    17    33 1   
    33    18    19 1   
    34    18    34 1   
    35    18    35 1   
    36    19    20 1   
    37    19    36 1   
    38    19    37 1   
    39    20    38 1   
    40    21    39 1   
    41    21    40 1   
    42    21    41 1   
@<TRIPOS>SUBSTRUCTURE
     1 R40         1 TEMP              0 ****  ****    0 ROOT
