@<TRIPOS>MOLECULE
R48
   68    72     1     0     0
SMALL
bcc


@<TRIPOS>ATOM
      1 C5           0.0000     0.0000     0.0000 ca         1 R48      -0.255600
      2 C1S          1.3990     0.0000     0.0000 ca         1 R48      -0.186000
      3 C2B          2.0760     0.0000     1.2030 ca         1 R48       0.047600
      4 N1E          3.4730     0.0000     1.2120 nv         1 R48      -0.448200
      5 C1M          1.3750    -0.0000     2.4130 ca         1 R48      -0.133000
      6 C1P          0.0130    -0.0000     2.4340 ca         1 R48      -0.108300
      7 C4          -0.7030     0.0010     1.2300 ca         1 R48       0.389600
      8 N3          -2.0450     0.0010     1.2050 nb         1 R48      -0.659000
      9 C2          -2.6880     0.0020     0.0610 ca         1 R48       0.653900
     10 N1          -2.0740     0.0020    -1.1110 nb         1 R48      -0.715000
     11 C6          -0.7520     0.0070    -1.2010 ca         1 R48       0.527200
     12 N1Y         -0.1240     0.0060    -2.4300 nu         1 R48      -0.286300
     13 C2D         -0.8810    -0.0800    -3.6020 ca         1 R48       0.005600
     14 C1Q         -2.1240     0.5330    -3.6710 ca         1 R48      -0.144000
     15 C1J         -0.3880    -0.7750    -4.6990 ca         1 R48      -0.147000
     16 C1G         -1.1350    -0.8600    -5.8570 ca         1 R48      -0.065000
     17 C1I         -2.3760    -0.2550    -5.9280 ca         1 R48      -0.116000
     18 C2C         -2.8720     0.4450    -4.8370 ca         1 R48      -0.062400
     19 N1W         -4.1260     1.0620    -4.9110 ns         1 R48      -0.042100
     20 C1Z         -5.1200     0.4840    -5.6150 c          1 R48       0.556100
     21 O1F         -4.9060    -0.5320    -6.2480 o          1 R48      -0.670100
     22 N1X         -6.3520     1.0320    -5.6160 ns         1 R48      -0.025100
     23 C2G         -7.3800     0.4340    -6.3440 cc         1 R48      -0.232700
     24 C1R         -7.2840    -0.6980    -7.0920 cd         1 R48      -0.333300
     25 C2F         -8.5400    -0.9510    -7.6520 cd         1 R48       0.391600
     26 C2L         -8.8860    -2.1070    -8.5540 c3         1 R48      -0.081300
     27 C1C        -10.2240    -1.8340    -9.2440 c3         1 R48       0.006900
     28 C1D         -7.7920    -2.2760    -9.6110 c3         1 R48       0.006900
     29 C1B         -8.9940    -3.3870    -7.7230 c3         1 R48       0.006900
     30 N1V         -9.3640    -0.0130    -7.2600 nc         1 R48      -0.654800
     31 N2K         -8.6660     0.8720    -6.4300 na         1 R48       0.581300
     32 C2E         -9.1950     2.0080    -5.8020 ca         1 R48      -0.136200
     33 C1N        -10.1710     2.7630    -6.4380 ca         1 R48      -0.109000
     34 C1K        -10.6910     3.8820    -5.8170 ca         1 R48      -0.083000
     35 C2A        -10.2410     4.2500    -4.5620 ca         1 R48      -0.090300
     36 C1A        -10.8100     5.4710    -3.8870 c3         1 R48       0.063200
     37 C1L         -9.2690     3.4990    -3.9260 ca         1 R48      -0.083000
     38 C1O         -8.7490     2.3770    -4.5390 ca         1 R48      -0.109000
     39 H1S          1.9400    -0.1470    -0.9270 ha         1 R48       0.111000
     40 HN1E         3.9790     0.2570     0.3870 hn         1 R48       0.267300
     41 HN1A         3.9680    -0.2220     2.0530 hn         1 R48       0.267300
     42 H1M          1.9230    -0.0000     3.3480 ha         1 R48       0.108000
     43 H1P         -0.5150    -0.0000     3.3800 ha         1 R48       0.119000
     44 H2          -3.7710    -0.0020     0.0780 h5         1 R48      -0.007900
     45 HN1Y         0.8700     0.1110    -2.4830 hn         1 R48       0.290800
     46 H1Q         -2.5090     1.0790    -2.8180 ha         1 R48       0.147000
     47 H1J          0.5840    -1.2500    -4.6470 ha         1 R48       0.104000
     48 H1G         -0.7500    -1.4050    -6.7110 ha         1 R48       0.104000
     49 H1I         -2.9610    -0.3240    -6.8380 ha         1 R48       0.148000
     50 HN1W        -4.3170     1.8710    -4.3530 hn         1 R48       0.159500
     51 HN1X        -6.5170     1.8930    -5.1320 hn         1 R48       0.170500
     52 H1R         -6.3810    -1.2700    -7.2680 ha         1 R48       0.193000
     53 H1C        -10.1630    -0.9010    -9.7920 hc         1 R48       0.007589
     54 H1CA       -11.0070    -1.7650    -8.4990 hc         1 R48       0.007589
     55 H1CB       -10.4480    -2.6420    -9.9300 hc         1 R48       0.007589
     56 H1D         -7.5860    -1.3180   -10.0720 hc         1 R48       0.007589
     57 H1DA        -6.8910    -2.6520    -9.1410 hc         1 R48       0.007589
     58 H1DB        -8.1250    -2.9760   -10.3670 hc         1 R48       0.007589
     59 H1B         -9.3110    -4.2050    -8.3580 hc         1 R48       0.007589
     60 H1BA        -9.7190    -3.2430    -6.9310 hc         1 R48       0.007589
     61 H1BB        -8.0280    -3.6190    -7.2900 hc         1 R48       0.007589
     62 H1N        -10.5240     2.4750    -7.4210 ha         1 R48       0.121000
     63 H1K        -11.4520     4.4710    -6.3130 ha         1 R48       0.110000
     64 H1A        -10.6300     6.3430    -4.5040 hc         1 R48       0.009700
     65 H1AA       -10.3340     5.6060    -2.9230 hc         1 R48       0.009700
     66 H1AB       -11.8770     5.3420    -3.7470 hc         1 R48       0.009700
     67 H1L         -8.9200     3.7880    -2.9420 ha         1 R48       0.110000
     68 H1O         -7.9880     1.7890    -4.0400 ha         1 R48       0.121000
@<TRIPOS>BOND
     1     1     2 ar  
     2     1     7 ar  
     3     1    11 ar  
     4     2     3 ar  
     5     2    39 1   
     6     3     4 1   
     7     3     5 ar  
     8     4    40 1   
     9     4    41 1   
    10     5     6 ar  
    11     5    42 1   
    12     6     7 ar  
    13     6    43 1   
    14     7     8 ar  
    15     8     9 ar  
    16     9    10 ar  
    17     9    44 1   
    18    10    11 ar  
    19    11    12 1   
    20    12    13 1   
    21    12    45 1   
    22    13    14 ar  
    23    13    15 ar  
    24    14    18 ar  
    25    14    46 1   
    26    15    16 ar  
    27    15    47 1   
    28    16    17 ar  
    29    16    48 1   
    30    17    18 ar  
    31    17    49 1   
    32    18    19 1   
    33    19    20 1   
    34    19    50 1   
    35    20    21 2   
    36    20    22 1   
    37    22    23 1   
    38    22    51 1   
    39    23    24 2   
    40    23    31 1   
    41    24    25 1   
    42    24    52 1   
    43    25    26 1   
    44    25    30 2   
    45    26    27 1   
    46    26    28 1   
    47    26    29 1   
    48    27    53 1   
    49    27    54 1   
    50    27    55 1   
    51    28    56 1   
    52    28    57 1   
    53    28    58 1   
    54    29    59 1   
    55    29    60 1   
    56    29    61 1   
    57    30    31 1   
    58    31    32 1   
    59    32    33 ar  
    60    32    38 ar  
    61    33    34 ar  
    62    33    62 1   
    63    34    35 ar  
    64    34    63 1   
    65    35    36 1   
    66    35    37 ar  
    67    36    64 1   
    68    36    65 1   
    69    36    66 1   
    70    37    38 ar  
    71    37    67 1   
    72    38    68 1   
@<TRIPOS>SUBSTRUCTURE
     1 R48         1 TEMP              0 ****  ****    0 ROOT
