@<TRIPOS>MOLECULE
molecule
   69    73     1     0     0
SMALL
bcc


@<TRIPOS>ATOM
      1 CAA          0.0000     0.0000     0.0000 c3         1 R49      -0.048800
      2 CBA          1.5070     0.0000     0.0000 ca         1 R49      -0.061300
      3 CAR          2.1980     0.0000     1.1950 ca         1 R49      -0.124000
      4 CAI          2.1980    -0.0050    -1.1990 ca         1 R49      -0.140000
      5 CAG          3.5800    -0.0060    -1.2030 ca         1 R49      -0.106000
      6 CAJ          4.2760    -0.0000    -0.0100 ca         1 R49      -0.182000
      7 CBE          3.5870    -0.0000     1.1940 ca         1 R49       0.047800
      8 NBK          4.2900     0.0010     2.4070 na         1 R49       0.115300
      9 NAV          3.9020     0.6500     3.5860 nc         1 R49      -0.504800
     10 CBG          4.8090     0.4210     4.5010 cd         1 R49       0.367600
     11 CBL          4.7820     0.9370     5.9170 c3         1 R49      -0.084300
     12 CAC          5.7890     2.0790     6.0640 c3         1 R49      -0.080433
     13 CAD          3.3770     1.4480     6.2450 c3         1 R49      -0.080433
     14 CAB          5.1500    -0.1950     6.8790 c3         1 R49      -0.080433
     15 CAS          5.8090    -0.3800     3.9430 cd         1 R49      -0.340300
     16 CBH          5.4690    -0.6350     2.6500 cc         1 R49       0.078300
     17 NAX          6.1950    -1.4040     1.7410 ns         1 R49      -0.471100
     18 CAZ          7.3540    -1.9790     2.1200 c          1 R49       0.788100
     19 OAF          7.7660    -1.8270     3.2530 o          1 R49      -0.620100
     20 NAW          8.0550    -2.7220     1.2410 ns         1 R49      -0.489100
     21 CBC          9.3290    -3.1950     1.5840 ca         1 R49       0.049600
     22 CAM          9.7420    -4.4500     1.1560 ca         1 R49      -0.119500
     23 CAO         10.9970    -4.9160     1.4940 ca         1 R49      -0.145500
     24 CAL         10.1800    -2.4060     2.3470 ca         1 R49      -0.119500
     25 CAN         11.4360    -2.8720     2.6840 ca         1 R49      -0.145500
     26 CBD         11.8470    -4.1300     2.2620 ca         1 R49       0.144600
     27 NAY         13.1180    -4.6030     2.6040 nu         1 R49      -0.671000
     28 CBF         13.6020    -4.4220     3.8920 ca         1 R49       0.210600
     29 CBJ         14.9430    -4.7370     4.2190 ca         1 R49      -0.144300
     30 CAT         15.8270    -5.2400     3.2560 ca         1 R49      -0.220000
     31 CBB         17.1260    -5.5330     3.6160 ca         1 R49       0.199600
     32 NAE         18.0130    -6.0350     2.6600 nv         1 R49      -0.921200
     33 CAP         17.5620    -5.3330     4.9300 ca         1 R49      -0.172000
     34 CAQ         16.7190    -4.8450     5.8800 ca         1 R49      -0.126300
     35 CBI         15.3890    -4.5360     5.5470 ca         1 R49       0.405600
     36 NAU         14.5450    -4.0550     6.4690 nb         1 R49      -0.711000
     37 CAH         13.3000    -3.7590     6.1780 ca         1 R49       0.450200
     38 CAK         12.7890    -3.9230     4.8970 ca         1 R49      -0.335300
     39 HAA         -0.3610    -0.0590    -1.0200 hc         1 R49       0.047700
     40 HAAA        -0.3610     0.9130     0.4580 hc         1 R49       0.047700
     41 HAAB        -0.3610    -0.8530     0.5610 hc         1 R49       0.047700
     42 HAR          1.6570     0.0000     2.1340 ha         1 R49       0.158000
     43 HAI          1.6540    -0.0100    -2.1360 ha         1 R49       0.135000
     44 HAG          4.1180    -0.0080    -2.1430 ha         1 R49       0.134000
     45 HAJ          5.3600    -0.0000    -0.0150 ha         1 R49       0.134000
     46 HAC          5.5780     2.8440     5.3260 hc         1 R49       0.039811
     47 HACA         6.7920     1.6980     5.9140 hc         1 R49       0.039811
     48 HACB         5.7090     2.5050     7.0570 hc         1 R49       0.039811
     49 HAD          3.3460     1.7790     7.2760 hc         1 R49       0.039811
     50 HADA         2.6590     0.6510     6.0990 hc         1 R49       0.039811
     51 HADB         3.1340     2.2780     5.5920 hc         1 R49       0.039811
     52 HAB          4.5730    -1.0790     6.6340 hc         1 R49       0.039811
     53 HABA         4.9300     0.1090     7.8950 hc         1 R49       0.039811
     54 HABB         6.2060    -0.4170     6.7890 hc         1 R49       0.039811
     55 HAS          6.6960    -0.7400     4.4510 ha         1 R49       0.203000
     56 HNAX         5.8320    -1.5670     0.8230 hn         1 R49       0.326500
     57 HNAW         7.6780    -2.9120     0.3340 hn         1 R49       0.318500
     58 HAM          9.0790    -5.0630     0.5580 ha         1 R49       0.147500
     59 HAO         11.3180    -5.8960     1.1620 ha         1 R49       0.145500
     60 HAL          9.8600    -1.4250     2.6760 ha         1 R49       0.147500
     61 HAN         12.0990    -2.2580     3.2810 ha         1 R49       0.145500
     62 HNAY        13.6720    -5.0870     1.9250 hn         1 R49       0.451800
     63 HAT         15.5360    -5.2650     2.2130 ha         1 R49       0.121000
     64 HNAE        18.9570    -6.2500     2.9160 hn         1 R49       0.429300
     65 HNAA        17.7050    -6.1800     1.7180 hn         1 R49       0.429300
     66 HAP         18.5850    -5.5690     5.1950 ha         1 R49       0.131000
     67 HAQ         17.0730    -4.6960     6.8920 ha         1 R49       0.150000
     68 HAH         12.6560    -3.3690     6.9560 h4         1 R49       0.022100
     69 HAK         11.7570    -3.6700     4.6860 ha         1 R49       0.155000
@<TRIPOS>BOND
     1     1     2 1
     2     1    39 1
     3     1    40 1
     4     1    41 1
     5     3     2 ar
     6     2     4 ar
     7     3     7 ar
     8     3    42 1
     9     4     5 ar
    10     4    43 1
    11     6     5 ar
    12     5    44 1
    13     7     6 ar
    14     6    45 1
    15     8     7 1
    16    16     8 1
    17     8     9 1
    18    10     9 2
    19    15    10 1
    20    10    11 1
    21    13    11 1
    22    11    12 1
    23    11    14 1
    24    12    46 1
    25    12    47 1
    26    12    48 1
    27    13    49 1
    28    13    50 1
    29    13    51 1
    30    14    52 1
    31    14    53 1
    32    14    54 1
    33    16    15 2
    34    15    55 1
    35    17    16 1
    36    18    17 1
    37    17    56 1
    38    20    18 1
    39    19    18 2
    40    21    20 1
    41    20    57 1
    42    22    21 ar
    43    24    21 ar
    44    23    22 ar
    45    22    58 1
    46    26    23 ar
    47    23    59 1
    48    25    24 ar
    49    24    60 1
    50    26    25 ar
    51    25    61 1
    52    27    26 1
    53    28    27 1
    54    27    62 1
    55    29    28 ar
    56    28    38 ar
    57    30    29 ar
    58    35    29 ar
    59    31    30 ar
    60    30    63 1
    61    32    31 1
    62    33    31 ar
    63    32    64 1
    64    32    65 1
    65    33    34 ar
    66    33    66 1
    67    34    35 ar
    68    34    67 1
    69    35    36 ar
    70    36    37 ar
    71    37    38 ar
    72    37    68 1
    73    38    69 1
@<TRIPOS>SUBSTRUCTURE
     1 R49         1 TEMP              0 ****  ****    0 ROOT
