@<TRIPOS>MOLECULE
R4E
   35    36     1     0     0
SMALL
bcc


@<TRIPOS>ATOM
      1 CAA          0.0000     0.0000     0.0000 ca         1 R4E      -0.025000
      2 CAB          1.3770     0.0000     0.0000 ca         1 R4E      -0.125000
      3 CAC          2.0890     0.0000     1.1910 ca         1 R4E      -0.082000
      4 CAD          1.4280    -0.0010     2.4070 ca         1 R4E       0.017600
      5 CAE          0.0270    -0.0020     2.4290 ca         1 R4E      -0.006800
      6 CAF         -0.6920    -0.0010     1.2130 ca         1 R4E      -0.164600
      7 CAG         -2.1570    -0.0010     1.2700 c          1 R4E       0.610100
      8 CAH         -0.7280    -0.0020     3.6820 cc         1 R4E      -0.164200
      9 CAI         -2.0710    -0.0030     3.6450 cd         1 R4E      -0.136600
     10 NAJ         -2.7700    -0.0020     2.4710 ns         1 R4E       0.041900
     11 OAK         -2.8150    -0.0000     0.2440 o          1 R4E      -0.687500
     12 CAL         -2.8340    -0.0040     4.9440 c3         1 R4E       0.023800
     13 NAM          2.1510    -0.0030     3.6010 nv         1 R4E      -0.553200
     14 CAN         -3.2010     1.4320     5.3220 c3         1 R4E      -0.029400
     15 CAO         -3.9750     1.4310     6.6420 c3         1 R4E      -0.029400
     16 CAP         -4.3420     2.8680     7.0190 c3         1 R4E      -0.027400
     17 CAQ         -5.1170     2.8660     8.3390 c3         1 R4E       0.006900
     18 HAA         -0.5440    -0.0000    -0.9370 ha         1 R4E       0.124000
     19 HAB          1.9120     0.0010    -0.9420 ha         1 R4E       0.105000
     20 HAC          3.1720     0.0000     1.1690 ha         1 R4E       0.106000
     21 HAH         -0.2090    -0.0030     4.6330 ha         1 R4E       0.129000
     22 HNAJ        -3.7700    -0.0020     2.5030 hn         1 R4E       0.171500
     23 HAL         -3.7380    -0.5900     4.8310 hc         1 R4E       0.025200
     24 HALA        -2.2190    -0.4370     5.7240 hc         1 R4E       0.025200
     25 HNAM         2.4500    -0.8690     4.0030 hn         1 R4E       0.272300
     26 HNAA         2.4030     0.8630     4.0340 hn         1 R4E       0.272300
     27 HAN         -3.8170     1.8650     4.5420 hc         1 R4E       0.019700
     28 HANA        -2.2970     2.0180     5.4340 hc         1 R4E       0.019700
     29 HAO         -4.8790     0.8460     6.5290 hc         1 R4E       0.015200
     30 HAOA        -3.3590     0.9990     7.4210 hc         1 R4E       0.015200
     31 HAP         -4.9570     3.3010     6.2400 hc         1 R4E       0.013700
     32 HAPA        -3.4380     3.4540     7.1330 hc         1 R4E       0.013700
     33 HAQ         -6.0210     2.2800     8.2260 hc         1 R4E       0.001033
     34 HAQA        -4.5020     2.4330     9.1180 hc         1 R4E       0.001033
     35 HAQB        -5.3770     3.8830     8.6070 hc         1 R4E       0.001033
@<TRIPOS>BOND
     1     1     2 ar  
     2     1     6 ar  
     3     1    18 1   
     4     2     3 ar  
     5     2    19 1   
     6     3     4 ar  
     7     3    20 1   
     8     4     5 ar  
     9     4    13 1   
    10     5     6 ar  
    11     5     8 1   
    12     6     7 1   
    13     7    10 1   
    14     7    11 2   
    15     8     9 2   
    16     8    21 1   
    17     9    10 1   
    18     9    12 1   
    19    10    22 1   
    20    12    14 1   
    21    12    23 1   
    22    12    24 1   
    23    13    25 1   
    24    13    26 1   
    25    14    15 1   
    26    14    27 1   
    27    14    28 1   
    28    15    16 1   
    29    15    29 1   
    30    15    30 1   
    31    16    17 1   
    32    16    31 1   
    33    16    32 1   
    34    17    33 1   
    35    17    34 1   
    36    17    35 1   
@<TRIPOS>SUBSTRUCTURE
     1 R4E         1 TEMP              0 ****  ****    0 ROOT
