@<TRIPOS>MOLECULE
molecule
   48    50     1     0     0
SMALL
bcc


@<TRIPOS>ATOM
      1 CAJ          0.0000     0.0000     0.0000 ca         1 R4G      -0.159500
      2 CAK          1.3850     0.0000     0.0000 ca         1 R4G       0.115600
      3 OAP          2.0640    -0.0010    -1.1780 oh         1 R4G      -0.524100
      4 CAL          2.0810     0.0000     1.2000 ca         1 R4G      -0.194000
      5 CAM          1.3950     0.0020     2.4060 ca         1 R4G       0.115600
      6 OAO          2.0830     0.0020     3.5780 oh         1 R4G      -0.524100
      7 CAN          0.0100     0.0020     2.4170 ca         1 R4G      -0.159500
      8 CAI         -0.6960     0.0010     1.2120 ca         1 R4G      -0.007800
      9 CAH         -2.1690     0.0010     1.2170 ce         1 R4G      -0.154200
     10 CAG         -2.8360     0.0020     2.3830 cf         1 R4G      -0.064200
     11 CAC         -4.3100     0.0030     2.3890 ca         1 R4G      -0.125800
     12 CAD         -5.0050     0.0040     3.6010 ca         1 R4G      -0.078500
     13 CAE         -6.3830     0.0030     3.6010 ca         1 R4G      -0.177500
     14 CAB         -5.0150     0.0080     1.1830 ca         1 R4G      -0.078500
     15 CAA         -6.3930     0.0080     1.1930 ca         1 R4G      -0.177500
     16 CAF         -7.0800     0.0030     2.4000 ca         1 R4G       0.173100
     17 O1          -8.4400     0.0030     2.4050 os         1 R4G      -0.320900
     18 C1          -9.0930     0.0030     1.1350 c3         1 R4G       0.319900
     19 O5          -8.8050     1.2240     0.4510 os         1 R4G      -0.402600
     20 C5          -9.3930     1.3170    -0.8490 c3         1 R4G       0.036100
     21 C6          -9.0010     2.6260    -1.4840 c          1 R4G       0.898600
     22 OBC         -9.3560     2.8890    -2.7520 o          1 R4G      -0.813300
     23 O6          -8.3670     3.4390    -0.8540 o          1 R4G      -0.813300
     24 C4         -10.9160     1.2450    -0.7240 c3         1 R4G       0.129100
     25 O4         -11.5040     1.2800    -2.0260 oh         1 R4G      -0.568800
     26 C3         -11.3030    -0.0600    -0.0230 c3         1 R4G       0.113100
     27 O3         -12.7200    -0.1020     0.1630 oh         1 R4G      -0.610800
     28 C2         -10.6050    -0.1220     1.3390 c3         1 R4G       0.116100
     29 O2         -10.9010    -1.3670     1.9720 oh         1 R4G      -0.609800
     30 HAJ         -0.5430    -0.0010    -0.9380 ha         1 R4G       0.146500
     31 HAP          2.2170     0.8880    -1.4530 ho         1 R4G       0.416500
     32 HAL          3.1650    -0.0000     1.1960 ha         1 R4G       0.142000
     33 HAO          2.2750     0.8900     3.8300 ho         1 R4G       0.416500
     34 HAN         -0.5240     0.0030     3.3590 ha         1 R4G       0.146500
     35 HAH         -2.7150     0.0010     0.2810 ha         1 R4G       0.145000
     36 HAG         -2.2910     0.0030     3.3190 ha         1 R4G       0.123000
     37 HAD         -4.4640     0.0760     4.5360 ha         1 R4G       0.128500
     38 HAB         -4.4810    -0.0490     0.2420 ha         1 R4G       0.128500
     39 HAE         -6.9230     0.0040     4.5400 ha         1 R4G       0.150500
     40 HAA         -6.9410     0.0130     0.2580 ha         1 R4G       0.150500
     41 H1          -8.7400    -0.8330     0.5430 h2         1 R4G       0.036700
     42 H2         -10.9530     0.6960     1.9590 h1         1 R4G       0.064700
     43 H5          -9.0430     0.4940    -1.4610 h1         1 R4G       0.039700
     44 H4         -11.2700     2.0860    -0.1400 h1         1 R4G       0.056700
     45 HA         -12.2400     1.8700    -2.0240 ho         1 R4G       0.400000
     46 H3         -10.9880    -0.9020    -0.6280 h1         1 R4G       0.049700
     47 HB         -13.0710    -0.8630    -0.2680 ho         1 R4G       0.401000
     48 HC         -11.1920    -1.2110     2.8550 ho         1 R4G       0.404000
@<TRIPOS>BOND
     1     1     2 ar
     2     1     8 ar
     3     2     3 1
     4     2     4 ar
     5     4     5 ar
     6     5     6 1
     7     5     7 ar
     8     7     8 ar
     9     8     9 1
    10     9    10 2
    11    10    11 1
    12    11    12 ar
    13    11    14 ar
    14    12    13 ar
    15    13    16 ar
    16    14    15 ar
    17    15    16 ar
    18    16    17 1
    19    17    18 1
    20    18    19 1
    21    18    28 1
    22    19    20 1
    23    20    21 1
    24    20    24 1
    25    21    22 1
    26    21    23 1
    27    24    25 1
    28    24    26 1
    29    26    27 1
    30    26    28 1
    31    28    29 1
    32     1    30 1
    33     3    31 1
    34     4    32 1
    35     6    33 1
    36     7    34 1
    37     9    35 1
    38    10    36 1
    39    12    37 1
    40    14    38 1
    41    13    39 1
    42    15    40 1
    43    18    41 1
    44    28    42 1
    45    20    43 1
    46    24    44 1
    47    25    45 1
    48    26    46 1
    49    27    47 1
    50    29    48 1
@<TRIPOS>SUBSTRUCTURE
     1 R4G         1 TEMP              0 ****  ****    0 ROOT
