@<TRIPOS>MOLECULE
R4G
   48    50     1     0     0
SMALL
bcc


@<TRIPOS>ATOM
      1 CAJ        -0.3390   -0.4070    0.4650 ca        1 R4G     -0.220000
      2 CAK        -0.2240    0.4410   -0.6420 ca        1 R4G      0.168600
      3 OAP         0.8850    0.2600   -1.4450 oh        1 R4G     -0.514100
      4 CAL        -1.1810    1.4210   -0.9190 ca        1 R4G     -0.269000
      5 CAM        -2.2830    1.5410   -0.0540 ca        1 R4G      0.168600
      6 OAO        -3.1770    2.5190   -0.3690 oh        1 R4G     -0.514100
      7 CAN        -2.4190    0.6940    1.0620 ca        1 R4G     -0.220000
      8 CAI        -1.4480   -0.2780    1.3180 ca        1 R4G      0.008200
      9 CAH        -1.4940   -1.1510    2.4830 ce        1 R4G     -0.121200
     10 CAG        -2.5380   -1.7440    3.0790 cf        1 R4G     -0.083200
     11 CAC        -3.9450   -1.6930    2.7310 ca        1 R4G     -0.102800
     12 CAD        -4.8990   -1.7530    3.7610 ca        1 R4G     -0.089000
     13 CAE        -6.2550   -1.6310    3.4870 ca        1 R4G     -0.160000
     14 CAB        -4.3840   -1.5820    1.4050 ca        1 R4G     -0.089000
     15 CAA        -5.7380   -1.4690    1.1100 ca        1 R4G     -0.160000
     16 CAF        -6.6710   -1.4620    2.1550 ca        1 R4G      0.165100
     17 O1         -8.0370   -1.3390    1.9570 os        1 R4G     -0.335900
     18 C1         -8.4360   -0.4720    0.8950 c3        1 R4G      0.337900
     19 O5         -7.6630    0.6850    1.1390 os        1 R4G     -0.395600
     20 C5         -7.9680    1.7790    0.2790 c3        1 R4G     -0.013900
     21 C6         -6.9700    2.9250    0.6220 c         1 R4G      0.947600
     22 OBC        -7.4080    4.1030    0.4980 o         1 R4G     -0.826300
     23 O6         -5.7970    2.6220    0.9570 o         1 R4G     -0.826300
     24 C4         -9.4290    2.1940    0.4860 c3        1 R4G      0.113100
     25 O4         -9.8380    3.2040   -0.4180 oh        1 R4G     -0.653800
     26 C3        -10.3520    0.9960    0.2150 c3        1 R4G      0.099100
     27 O3        -11.7050    1.2870    0.5400 oh        1 R4G     -0.628800
     28 C2         -9.9450   -0.2110    1.0750 c3        1 R4G      0.120100
     29 O2        -10.6280   -1.3760    0.6390 oh        1 R4G     -0.600800
     30 HAJ         0.4340   -1.1630    0.6540 ha        1 R4G      0.156000
     31 HAP         0.8310    0.9030   -2.1640 ho        1 R4G      0.454000
     32 HAL        -1.0910    2.0890   -1.7840 ha        1 R4G      0.142000
     33 HAO        -3.9420    2.4840    0.2440 ho        1 R4G      0.454000
     34 HAN        -3.2980    0.8010    1.7190 ha        1 R4G      0.156000
     35 HAH        -0.4890   -1.3370    2.9140 ha        1 R4G      0.113000
     36 HAG        -2.3300   -2.3540    3.9810 ha        1 R4G      0.109000
     37 HAD        -4.5660   -1.8640    4.8040 ha        1 R4G      0.130500
     38 HAB        -3.6440   -1.5560    0.5890 ha        1 R4G      0.130500
     39 HAE        -7.0030   -1.6400    4.2910 ha        1 R4G      0.141000
     40 HAA        -6.0680   -1.3240    0.0720 ha        1 R4G      0.141000
     41 H1         -8.2130   -0.9300   -0.1060 h2        1 R4G      0.048700
     42 H2        -10.1750   -0.0150    2.1570 h1        1 R4G      0.070700
     43 H5         -7.8060    1.4800   -0.7920 h1        1 R4G      0.037700
     44 H4         -9.5690    2.5580    1.5420 h1        1 R4G      0.058700
     45 HA         -9.1880    3.9270   -0.3410 ho        1 R4G      0.466000
     46 H3        -10.3030    0.7190   -0.8770 h1        1 R4G      0.051700
     47 HB        -11.8660    2.1920    0.2410 ho        1 R4G      0.426000
     48 HC        -11.5680   -1.1550    0.6630 ho        1 R4G      0.411000
@<TRIPOS>BOND
     1    1    2 ar  
     2    1    8 ar  
     3    1   30 1   
     4    2    3 1   
     5    2    4 ar  
     6    3   31 1   
     7    4    5 ar  
     8    4   32 1   
     9    5    6 1   
    10    5    7 ar  
    11    6   33 1   
    12    7    8 ar  
    13    7   34 1   
    14    8    9 1   
    15    9   10 2   
    16    9   35 1   
    17   10   11 1   
    18   10   36 1   
    19   11   12 ar  
    20   11   14 ar  
    21   12   13 ar  
    22   12   37 1   
    23   13   16 ar  
    24   13   39 1   
    25   14   15 ar  
    26   14   38 1   
    27   15   16 ar  
    28   15   40 1   
    29   16   17 1   
    30   17   18 1   
    31   18   19 1   
    32   18   28 1   
    33   18   41 1   
    34   19   20 1   
    35   20   21 1   
    36   20   24 1   
    37   20   43 1   
    38   21   22 1   
    39   21   23 1   
    40   24   25 1   
    41   24   26 1   
    42   24   44 1   
    43   25   45 1   
    44   26   27 1   
    45   26   28 1   
    46   26   46 1   
    47   27   47 1   
    48   28   29 1   
    49   28   42 1   
    50   29   48 1   
@<TRIPOS>SUBSTRUCTURE
     1 R4G         1 TEMP              0 ****  ****    0 ROOT
