@<TRIPOS>MOLECULE
R4L
   90    96     1     0     0
SMALL
bcc


@<TRIPOS>ATOM
      1 CAP          0.0000     0.0000     0.0000 c3         1 R4L      -0.066400
      2 CAN          1.5390     0.0000     0.0000 c3         1 R4L      -0.019900
      3 CAO          1.9790     0.0000     1.4790 c3         1 R4L      -0.019900
      4 CAQ          0.7690    -0.6020     2.2350 c3         1 R4L      -0.066400
      5 CBO         -0.4400    -0.0000     1.4780 c3         1 R4L       0.163500
      6 NBT         -1.6280    -0.8410     1.6590 na         1 R4L      -0.366700
      7 CBK         -2.8100    -0.2970     2.1490 ca         1 R4L       0.060600
      8 CAK         -3.4370     0.7340     1.4640 ca         1 R4L      -0.129000
      9 CAG         -4.6310     1.2480     1.9280 ca         1 R4L      -0.066000
     10 CAF         -5.2110     0.7400     3.0780 ca         1 R4L      -0.123000
     11 CAJ         -4.5950    -0.2740     3.7800 ca         1 R4L      -0.024000
     12 CBJ         -3.3750    -0.7930     3.3330 ca         1 R4L      -0.161600
     13 CBI         -2.6790    -1.8080     4.1340 c          1 R4L       0.627100
     14 OAE         -2.7410    -1.6950     5.3430 o          1 R4L      -0.687500
     15 NBS         -1.9900    -2.8350     3.6580 n          1 R4L       0.056000
     16 CAC         -1.3520    -3.7110     4.6430 c3         1 R4L       0.047300
     17 C5          -1.8100    -3.1670     2.3150 ca         1 R4L      -0.399000
     18 C6          -1.8350    -4.4980     1.9210 ca         1 R4L       0.473200
     19 N1          -1.6140    -4.7980     0.6490 nb         1 R4L      -0.680000
     20 C4          -1.5920    -2.1890     1.3370 ca         1 R4L       0.587200
     21 N3          -1.3600    -2.5620     0.0830 nb         1 R4L      -0.683000
     22 C2          -1.3690    -3.8520    -0.2420 ca         1 R4L       0.699900
     23 NBB         -1.1160    -4.2110    -1.5580 nu         1 R4L      -0.264300
     24 CBF         -1.2480    -5.5410    -1.9540 ca         1 R4L      -0.020400
     25 CBH         -0.4260    -6.0540    -2.9600 ca         1 R4L       0.114100
     26 CAM         -0.5560    -7.3710    -3.3530 ca         1 R4L      -0.136000
     27 OBC          0.5030    -5.2560    -3.5520 os         1 R4L      -0.315900
     28 CAA          1.3090    -5.8460    -4.5720 c3         1 R4L       0.246700
     29 CAI         -2.1940    -6.3570    -1.3440 ca         1 R4L      -0.088000
     30 CAH         -2.3280    -7.6720    -1.7330 ca         1 R4L      -0.117000
     31 CBE         -1.5110    -8.1880    -2.7420 ca         1 R4L      -0.122600
     32 CBD         -1.6540    -9.5970    -3.1590 c          1 R4L       0.611700
     33 OAD         -0.6660   -10.2940    -3.2930 o          1 R4L      -0.646100
     34 NBQ         -2.8780   -10.1100    -3.3910 n          1 R4L      -0.146800
     35 CAU         -3.0310   -11.4810    -3.8980 c3         1 R4L       0.034500
     36 CAS         -3.8990   -11.4450    -5.1600 c3         1 R4L      -0.070900
     37 CAT         -4.0850    -9.3130    -3.1350 c3         1 R4L       0.034500
     38 CAR         -4.9440    -9.2960    -4.4040 c3         1 R4L      -0.070900
     39 CBN         -5.2200   -10.7400    -4.8460 c3         1 R4L       0.130500
     40 NBR         -6.0690   -10.7330    -6.0450 n3         1 R4L      -0.525600
     41 CAX         -7.3930   -10.1690    -5.7500 c3         1 R4L       0.095300
     42 CAV         -8.2710   -10.2530    -7.0010 c3         1 R4L       0.159300
     43 NBP         -7.6240    -9.5220    -8.1000 n3         1 R4L      -0.543600
     44 CAB         -7.5300    -8.0880    -7.7950 c3         1 R4L       0.164100
     45 CAW         -6.2990   -10.0860    -8.3950 c3         1 R4L       0.159300
     46 CAY         -5.4220   -10.0020    -7.1450 c3         1 R4L       0.095300
     47 HAP1        -0.3700    -0.8890    -0.4960 hc         1 R4L       0.032700
     48 HAP2        -0.3700     0.8900    -0.4960 hc         1 R4L       0.032700
     49 HAN1         1.9080     0.8890    -0.4960 hc         1 R4L       0.014450
     50 HAN2         1.9080    -0.8890    -0.4960 hc         1 R4L       0.014450
     51 HBO         -0.6300     1.0120     1.8150 h1         1 R4L       0.045700
     52 HAO1         2.1700     1.0120     1.8160 hc         1 R4L       0.014450
     53 HAO2         2.8560    -0.6230     1.6120 hc         1 R4L       0.014450
     54 HAQ1         0.7700    -1.6830     2.1580 hc         1 R4L       0.032700
     55 HAQ2         0.7690    -0.2840     3.2710 hc         1 R4L       0.032700
     56 HAK         -2.9890     1.1360     0.5630 ha         1 R4L       0.117000
     57 HAG         -5.1230     2.0450     1.3830 ha         1 R4L       0.103000
     58 HAF         -6.1480     1.1490     3.4350 ha         1 R4L       0.108000
     59 HAJ         -5.0540    -0.6670     4.6790 ha         1 R4L       0.121000
     60 HAC1        -0.9640    -3.1150     5.4600 h1         1 R4L       0.022700
     61 HAC2        -2.0810    -4.4160     5.0250 h1         1 R4L       0.022700
     62 HAC3        -0.5390    -4.2510     4.1720 h1         1 R4L       0.022700
     63 H6          -2.0350    -5.2800     2.6440 h4         1 R4L      -0.005900
     64 HBB         -0.8880    -3.5090    -2.2330 hn         1 R4L       0.301800
     65 HAI         -2.8280    -5.9570    -0.5610 ha         1 R4L       0.141000
     66 HAM          0.0800    -7.7690    -4.1350 ha         1 R4L       0.136000
     67 HAA1         0.6740    -6.2000    -5.3750 h1         1 R4L       0.001367
     68 HAA2         1.8640    -6.6790    -4.1580 h1         1 R4L       0.001367
     69 HAA3         2.0010    -5.1080    -4.9580 h1         1 R4L       0.001367
     70 HAH         -3.0670    -8.3050    -1.2570 ha         1 R4L       0.119000
     71 HAU1        -3.5110   -12.0940    -3.1460 h1         1 R4L       0.039450
     72 HAU2        -2.0570   -11.8880    -4.1400 h1         1 R4L       0.039450
     73 HAT1        -3.8020    -8.3000    -2.8760 h1         1 R4L       0.039450
     74 HAT2        -4.6480    -9.7570    -2.3230 h1         1 R4L       0.039450
     75 HAS1        -3.3780   -10.9030    -5.9400 hc         1 R4L       0.032950
     76 HAS2        -4.1000   -12.4570    -5.4880 hc         1 R4L       0.032950
     77 HBN         -5.7250   -11.2680    -4.0460 h1         1 R4L       0.040700
     78 HAR1        -5.8830    -8.7960    -4.1970 hc         1 R4L       0.032950
     79 HAR2        -4.4150    -8.7730    -5.1910 hc         1 R4L       0.032950
     80 HAX1        -7.8540   -10.7340    -4.9480 h1         1 R4L       0.021950
     81 HAX2        -7.2860    -9.1330    -5.4540 h1         1 R4L       0.021950
     82 HAY1        -4.4550   -10.4460    -7.3520 h1         1 R4L       0.021950
     83 HAY2        -5.2960    -8.9640    -6.8620 h1         1 R4L       0.021950
     84 HAV1        -8.3970   -11.2910    -7.2840 h1         1 R4L       0.029700
     85 HAV2        -9.2370    -9.8090    -6.7940 h1         1 R4L       0.029700
     86 HAB1        -8.0120    -7.8880    -6.8460 h1         1 R4L       0.006033
     87 HAB2        -6.4880    -7.7980    -7.7400 h1         1 R4L       0.006033
     88 HAB3        -8.0220    -7.5210    -8.5760 h1         1 R4L       0.006033
     89 HAW1        -6.4070   -11.1230    -8.6910 h1         1 R4L       0.029700
     90 HAW2        -5.8380    -9.5220    -9.1970 h1         1 R4L       0.029700
@<TRIPOS>BOND
     1     1     2 1   
     2     1     5 1   
     3     1    47 1   
     4     1    48 1   
     5     2     3 1   
     6     2    49 1   
     7     2    50 1   
     8     3     4 1   
     9     3    52 1   
    10     3    53 1   
    11     4     5 1   
    12     4    54 1   
    13     4    55 1   
    14     5     6 1   
    15     5    51 1   
    16     6     7 1   
    17     6    20 1   
    18     7     8 ar  
    19     7    12 ar  
    20     8     9 ar  
    21     8    56 1   
    22     9    10 ar  
    23     9    57 1   
    24    10    11 ar  
    25    10    58 1   
    26    11    12 ar  
    27    11    59 1   
    28    12    13 1   
    29    13    14 2   
    30    13    15 1   
    31    15    16 1   
    32    15    17 1   
    33    16    60 1   
    34    16    61 1   
    35    16    62 1   
    36    17    18 ar  
    37    17    20 ar  
    38    18    19 ar  
    39    18    63 1   
    40    19    22 ar  
    41    20    21 ar  
    42    21    22 ar  
    43    22    23 1   
    44    23    24 1   
    45    23    64 1   
    46    24    25 ar  
    47    24    29 ar  
    48    25    26 ar  
    49    25    27 1   
    50    26    31 ar  
    51    26    66 1   
    52    27    28 1   
    53    28    67 1   
    54    28    68 1   
    55    28    69 1   
    56    29    30 ar  
    57    29    65 1   
    58    30    31 ar  
    59    30    70 1   
    60    31    32 1   
    61    32    33 2   
    62    32    34 1   
    63    34    35 1   
    64    34    37 1   
    65    35    36 1   
    66    35    71 1   
    67    35    72 1   
    68    36    39 1   
    69    36    75 1   
    70    36    76 1   
    71    37    38 1   
    72    37    73 1   
    73    37    74 1   
    74    38    39 1   
    75    38    78 1   
    76    38    79 1   
    77    39    40 1   
    78    39    77 1   
    79    40    41 1   
    80    40    46 1   
    81    41    42 1   
    82    41    80 1   
    83    41    81 1   
    84    42    43 1   
    85    42    84 1   
    86    42    85 1   
    87    43    44 1   
    88    43    45 1   
    89    44    86 1   
    90    44    87 1   
    91    44    88 1   
    92    45    46 1   
    93    45    89 1   
    94    45    90 1   
    95    46    82 1   
    96    46    83 1   
@<TRIPOS>SUBSTRUCTURE
     1 R4L         1 TEMP              0 ****  ****    0 ROOT
