@<TRIPOS>MOLECULE
R4M
   48    49     1     0     0
SMALL
bcc


@<TRIPOS>ATOM
      1 C2'         0.4390    1.0590   -0.5010 c3        1 R4M     -0.047200
      2 C1'         1.6820    1.9150   -0.3940 c3        1 R4M     -0.090400
      3 C18         2.3870    1.7220    0.9390 c3        1 R4M     -0.017400
      4 C4'         3.4310    2.8130    1.1020 c3        1 R4M     -0.106100
      5 C5          1.4400    1.6520    2.0970 ca        1 R4M     -0.034300
      6 C4          1.9590    1.7070    3.3980 ca        1 R4M     -0.139000
      7 C3          1.1320    1.5840    4.5100 ca        1 R4M     -0.135000
      8 C2         -0.2380    1.3930    4.3360 ca        1 R4M     -0.154000
      9 C1         -0.7700    1.3390    3.0510 ca        1 R4M     -0.126000
     10 C6          0.0500    1.4790    1.9210 ca        1 R4M     -0.047800
     11 C7         -0.5270    1.4320    0.5730 ce        1 R4M     -0.032400
     12 C8         -1.8160    1.7380    0.3380 cf        1 R4M     -0.142000
     13 C9         -2.5100    1.6900   -0.9460 cf        1 R4M     -0.106200
     14 C19        -3.5440    0.6220   -1.0280 c3        1 R4M     -0.048900
     15 C10        -2.3150    2.5420   -1.9650 c2        1 R4M     -0.141200
     16 C11        -1.3240    3.6420   -1.9940 c3        1 R4M     -0.057200
     17 C12        -0.6090    3.7150   -3.3370 c3        1 R4M     -0.030200
     18 C13         0.7450    4.3300   -3.1960 c2        1 R4M     -0.164400
     19 C20         0.7640    5.8050   -3.0660 c3        1 R4M     -0.049900
     20 C14         1.8440    3.5640   -3.1740 ce        1 R4M     -0.186200
     21 C15         3.2640    4.0040   -2.9140 c         1 R4M      0.898800
     22 O1          3.7180    5.0580   -3.4410 o         1 R4M     -0.842800
     23 O2          3.9510    3.2490   -2.1590 o         1 R4M     -0.842800
     24 H1         -0.0240    1.1990   -1.5140 hc        1 R4M      0.048700
     25 H2          0.7070   -0.0260   -0.3930 hc        1 R4M      0.048700
     26 H3          2.4040    1.6850   -1.2270 hc        1 R4M      0.086200
     27 H4          1.4100    2.9980   -0.5230 hc        1 R4M      0.086200
     28 H5          2.9200    0.7250    0.9080 hc        1 R4M      0.045700
     29 H6          4.2120    2.5090    1.8380 hc        1 R4M      0.051033
     30 H7          2.9570    3.7590    1.4560 hc        1 R4M      0.051033
     31 H8          3.9200    3.0130    0.1090 hc        1 R4M      0.051033
     32 H9          3.0410    1.8510    3.5370 ha        1 R4M      0.133000
     33 H10         1.5580    1.6350    5.5210 ha        1 R4M      0.117000
     34 H11        -0.8970    1.2850    5.2080 ha        1 R4M      0.116000
     35 H12        -1.8500    1.1740    2.9250 ha        1 R4M      0.123000
     36 H13        -2.4770    2.0430    1.1690 ha        1 R4M      0.115000
     37 H14        -4.2770    0.7290   -0.1900 hc        1 R4M      0.031700
     38 H15        -4.1030    0.6650   -1.9940 hc        1 R4M      0.031700
     39 H16        -3.0610   -0.3840   -0.9430 hc        1 R4M      0.031700
     40 H17        -2.9230    2.4440   -2.8810 ha        1 R4M      0.108000
     41 H18        -1.8510    4.6160   -1.7990 hc        1 R4M      0.056700
     42 H19        -0.5680    3.5080   -1.1720 hc        1 R4M      0.056700
     43 H20        -1.2290    4.3110   -4.0570 hc        1 R4M      0.026200
     44 H21        -0.5150    2.6790   -3.7620 hc        1 R4M      0.026200
     45 H22         0.2920    6.2770   -3.9630 hc        1 R4M      0.035700
     46 H23         0.1840    6.1210   -2.1630 hc        1 R4M      0.035700
     47 H24         1.8180    6.1780   -2.9800 hc        1 R4M      0.035700
     48 H25         1.7500    2.4700   -3.2910 ha        1 R4M      0.095000
@<TRIPOS>BOND
     1    1    2 1   
     2    1   11 1   
     3    1   24 1   
     4    1   25 1   
     5    2    3 1   
     6    2   26 1   
     7    2   27 1   
     8    3    4 1   
     9    3    5 1   
    10    3   28 1   
    11    4   29 1   
    12    4   30 1   
    13    4   31 1   
    14    5    6 ar  
    15    5   10 ar  
    16    6    7 ar  
    17    6   32 1   
    18    7    8 ar  
    19    7   33 1   
    20    8    9 ar  
    21    8   34 1   
    22    9   10 ar  
    23    9   35 1   
    24   10   11 1   
    25   11   12 2   
    26   12   13 1   
    27   12   36 1   
    28   13   14 1   
    29   13   15 2   
    30   14   37 1   
    31   14   38 1   
    32   14   39 1   
    33   15   16 1   
    34   15   40 1   
    35   16   17 1   
    36   16   41 1   
    37   16   42 1   
    38   17   18 1   
    39   17   43 1   
    40   17   44 1   
    41   18   19 1   
    42   18   20 2   
    43   19   45 1   
    44   19   46 1   
    45   19   47 1   
    46   20   21 1   
    47   20   48 1   
    48   21   22 1   
    49   21   23 1   
@<TRIPOS>SUBSTRUCTURE
     1 R4M         1 TEMP              0 ****  ****    0 ROOT
