@<TRIPOS>MOLECULE
molecule
   48    49     1     0     0
SMALL
bcc


@<TRIPOS>ATOM
      1 C2'          0.0000     0.0000     0.0000 c3         1 R4M      -0.046200
      2 C1'          1.5340     0.0000     0.0000 c3         1 R4M      -0.074400
      3 C18          2.0400     0.0000     1.4400 c3         1 R4M      -0.025400
      4 C4'          3.5660     0.1230     1.4360 c3         1 R4M      -0.089100
      5 C5           1.4560     1.1430     2.2240 ca         1 R4M      -0.060300
      6 C4           2.1180     1.5960     3.3510 ca         1 R4M      -0.130000
      7 C3           1.6030     2.6430     4.0920 ca         1 R4M      -0.125000
      8 C2           0.4180     3.2510     3.7160 ca         1 R4M      -0.128000
      9 C1          -0.2550     2.8150     2.5950 ca         1 R4M      -0.111000
     10 C6           0.2630     1.7590     1.8410 ca         1 R4M      -0.040800
     11 C7          -0.4530     1.2990     0.6340 ce         1 R4M      -0.060400
     12 C8          -1.4710     2.0090     0.1150 ce         1 R4M      -0.191000
     13 C9          -2.0980     1.5830    -1.1400 ce         1 R4M       0.032800
     14 C19         -2.8600     0.2840    -1.1980 c3         1 R4M      -0.046900
     15 C10         -1.9940     2.3440    -2.2280 c2         1 R4M      -0.515200
     16 C11         -1.3310     3.6940    -2.1440 c3         1 R4M      -0.093200
     17 C12         -0.2160     3.7810    -3.1880 c3         1 R4M      -0.055200
     18 C13          0.4470     5.1320    -3.1040 c2         1 R4M      -0.172400
     19 C20         -0.1400     6.3070    -3.8430 c3         1 R4M      -0.017900
     20 C14          1.5500     5.2870    -2.3760 ce         1 R4M      -0.182200
     21 C15          2.1050     6.6310    -2.1600 c          1 R4M       0.872800
     22 O1           1.4970     7.6090    -2.5490 o          1 R4M      -0.844800
     23 O2           3.2880     6.7790    -1.5320 o          1 R4M      -0.844800
     24 H1          -0.3670    -0.8390     0.5790 hc         1 R4M       0.052200
     25 H2          -0.3670    -0.0590    -1.0180 hc         1 R4M       0.052200
     26 H3           1.8840    -0.8990    -0.4930 hc         1 R4M       0.052200
     27 H4           1.8840     0.8990    -0.4930 hc         1 R4M       0.052200
     28 H5           1.7570    -0.9320     1.9130 hc         1 R4M       0.049700
     29 H6           3.9770    -0.5160     0.6640 hc         1 R4M       0.037700
     30 H7           3.9550    -0.1780     2.4000 hc         1 R4M       0.037700
     31 H8           3.8440     1.1520     1.2390 hc         1 R4M       0.037700
     32 H9           3.0460     1.1270     3.6540 ha         1 R4M       0.127000
     33 H10          2.1290     2.9880     4.9730 ha         1 R4M       0.123000
     34 H11          0.0210     4.0710     4.3020 ha         1 R4M       0.127000
     35 H12         -1.1830     3.2900     2.2990 ha         1 R4M       0.135000
     36 H13         -1.7780     2.9360     0.5840 ha         1 R4M       0.144000
     37 H14         -2.9560    -0.1240    -0.1980 hc         1 R4M       0.043700
     38 H15         -3.8460     0.4610    -1.6110 hc         1 R4M       0.043700
     39 H16         -2.3270    -0.4210    -1.8250 hc         1 R4M       0.043700
     40 H17         -0.9180     2.4600    -2.2640 ha         1 R4M       0.362000
     41 H18         -2.0650     4.4690    -2.3340 hc         1 R4M       0.068700
     42 H19         -0.9110     3.8290    -1.1540 hc         1 R4M       0.068700
     43 H20         -0.6360     3.6460    -4.1770 hc         1 R4M       0.041200
     44 H21          0.5170     3.0070    -2.9980 hc         1 R4M       0.041200
     45 H22          0.6320     6.7830    -4.4360 hc         1 R4M       0.036033
     46 H23         -0.9350     5.9640    -4.4940 hc         1 R4M       0.036033
     47 H24         -0.5390     7.0190    -3.1310 hc         1 R4M       0.036033
     48 H25          1.9690     4.4410    -1.8450 ha         1 R4M       0.099000
@<TRIPOS>BOND
     1    14    13 1
     2    15    13 2
     3    15    16 1
     4    13    12 1
     5    17    16 1
     6    17    18 1
     7    20    18 2
     8    20    21 1
     9    12    11 2
    10    18    19 1
    11    21    22 1
    12    21    23 1
    13    11     1 1
    14    11    10 1
    15     9    10 ar
    16     9     8 ar
    17     1     2 1
    18    10     5 ar
    19     8     7 ar
    20     2     3 1
    21     5     3 1
    22     5     6 ar
    23     7     6 ar
    24     3     4 1
    25     1    24 1
    26     1    25 1
    27     2    26 1
    28     2    27 1
    29     3    28 1
    30     4    29 1
    31     4    30 1
    32     4    31 1
    33     6    32 1
    34     7    33 1
    35     8    34 1
    36     9    35 1
    37    12    36 1
    38    14    37 1
    39    14    38 1
    40    14    39 1
    41    15    40 1
    42    16    41 1
    43    16    42 1
    44    17    43 1
    45    17    44 1
    46    19    45 1
    47    19    46 1
    48    19    47 1
    49    20    48 1
@<TRIPOS>SUBSTRUCTURE
     1 R4M         1 TEMP              0 ****  ****    0 ROOT
