@<TRIPOS>MOLECULE
R4N
   54    58     1     0     0
SMALL
bcc


@<TRIPOS>ATOM
      1 C1           0.0000     0.0000     0.0000 ca         1 R4N      -0.099000
      2 C2           1.3820     0.0000     0.0000 ca         1 R4N      -0.101000
      3 C3           7.9180    -3.8750    12.7670 ca         1 R4N      -0.092000
      4 C4           5.9290    -2.0910     5.9330 ca         1 R4N      -0.104000
      5 C5           8.3940    -2.8090    12.0270 ca         1 R4N      -0.077000
      6 C6          -0.6930     0.0000     1.1960 ca         1 R4N      -0.100000
      7 C7           2.0760     0.0000     1.1950 ca         1 R4N      -0.102000
      8 C8           7.1350    -2.7560     5.9310 ca         1 R4N      -0.038000
      9 C9           6.6080    -4.2900    12.6190 ca         1 R4N      -0.091000
     10 C10          6.5320    -1.0210     8.0200 ca         1 R4N      -0.085000
     11 C11          6.2500    -2.5710    10.9890 ca         1 R4N      -0.091000
     12 C12          5.6200    -1.2170     6.9800 ca         1 R4N      -0.117600
     13 C13          7.5600    -2.1570    11.1380 ca         1 R4N      -0.116300
     14 C14          7.7440    -1.6900     8.0190 ca         1 R4N      -0.073400
     15 C15         -0.0040    -0.0010     2.3990 ca         1 R4N       0.070100
     16 C16          1.3860     0.0010     2.3990 ca         1 R4N       0.066100
     17 C17          8.0430    -2.5590     6.9630 ca         1 R4N       0.026900
     18 C18          5.7730    -3.6380    11.7290 ca         1 R4N      -0.034600
     19 C19          9.9500    -1.6990     9.0270 c          1 R4N       0.608500
     20 C20          4.3300    -0.5020     6.9860 c          1 R4N       0.593700
     21 C21         10.6680    -2.2200     7.8130 c3         1 R4N       0.020700
     22 C22          0.0200     0.3700     4.7480 c3         1 R4N       0.180400
     23 C23          1.3640    -0.3720     4.7470 c3         1 R4N       0.117100
     24 C25          2.1690     0.0180     5.9880 c3         1 R4N       0.054000
     25 N26          8.6370    -1.4860     9.0690 n          1 R4N       0.048000
     26 N27          3.4500    -0.6920     5.9820 ns         1 R4N      -0.189900
     27 O28         10.6020    -1.4590    10.0220 o          1 R4N      -0.665500
     28 O29          4.0600     0.2570     7.8960 o          1 R4N      -0.650100
     29 O30         -0.7000    -0.0070     3.5680 os         1 R4N      -0.295900
     30 O31          2.0820     0.0060     3.5680 os         1 R4N      -0.302900
     31 S32          9.5910    -3.4050     6.9530 ss         1 R4N      -0.309000
     32 Cl33         4.1280    -4.1580    11.5410 cl         1 R4N      -0.028400
     33 H1          -0.5410    -0.0000    -0.9390 ha         1 R4N       0.107000
     34 H2           1.9220    -0.0000    -0.9390 ha         1 R4N       0.107000
     35 H6          -1.7760     0.0000     1.1930 ha         1 R4N       0.117000
     36 H7           3.1590     0.0000     1.1920 ha         1 R4N       0.114000
     37 H5           9.4210    -2.4850    12.1440 ha         1 R4N       0.127000
     38 H9           6.2350    -5.1260    13.1990 ha         1 R4N       0.114000
     39 H4           5.2220    -2.2440     5.1270 ha         1 R4N       0.110000
     40 H8           7.3770    -3.4330     5.1210 ha         1 R4N       0.122000
     41 H10          6.2900    -0.3430     8.8300 ha         1 R4N       0.150000
     42 H11          5.5960    -2.0590    10.2930 ha         1 R4N       0.124000
     43 H211        10.9000    -1.3950     7.1500 h1         1 R4N       0.074700
     44 H212        11.5810    -2.7160     8.1180 h1         1 R4N       0.074700
     45 H27          3.6600    -1.3400     5.2490 hn         1 R4N       0.188500
     46 H221        -0.5490     0.0920     5.6270 h1         1 R4N       0.029700
     47 H222         0.1940     1.4400     4.7410 h1         1 R4N       0.029700
     48 H23          1.1900    -1.4410     4.7400 h1         1 R4N       0.032700
     49 H251         1.6120    -0.2480     6.8780 h1         1 R4N       0.037700
     50 H252         2.3480     1.0870     5.9810 h1         1 R4N       0.037700
     51 C24          8.0800    -0.9950    10.3320 c3         1 R4N       0.059300
     52 H3           8.5720    -4.3860    13.4630 ha         1 R4N       0.108000
     53 H241         7.2690    -0.3070    10.1260 h1         1 R4N       0.056700
     54 H242         8.8530    -0.4840    10.8930 h1         1 R4N       0.056700
@<TRIPOS>BOND
     1     1     2 ar  
     2     1     6 ar  
     3     1    33 1   
     4     2     7 ar  
     5     2    34 1   
     6     3     5 ar  
     7     3     9 ar  
     8     3    52 1   
     9     4     8 ar  
    10     4    12 ar  
    11     4    39 1   
    12     5    13 ar  
    13     5    37 1   
    14     6    15 ar  
    15     6    35 1   
    16     7    16 ar  
    17     7    36 1   
    18     8    17 ar  
    19     8    40 1   
    20     9    18 ar  
    21     9    38 1   
    22    10    12 ar  
    23    10    14 ar  
    24    10    41 1   
    25    11    13 ar  
    26    11    18 ar  
    27    11    42 1   
    28    12    20 1   
    29    13    51 1   
    30    14    17 ar  
    31    14    25 1   
    32    15    16 ar  
    33    15    29 1   
    34    16    30 1   
    35    17    31 1   
    36    18    32 1   
    37    19    21 1   
    38    19    25 1   
    39    19    27 2   
    40    20    26 1   
    41    20    28 2   
    42    21    31 1   
    43    21    43 1   
    44    21    44 1   
    45    22    23 1   
    46    22    29 1   
    47    22    46 1   
    48    22    47 1   
    49    23    24 1   
    50    23    30 1   
    51    23    48 1   
    52    24    26 1   
    53    24    49 1   
    54    24    50 1   
    55    25    51 1   
    56    26    45 1   
    57    51    53 1   
    58    51    54 1   
@<TRIPOS>SUBSTRUCTURE
     1 R4N         1 TEMP              0 ****  ****    0 ROOT
