@<TRIPOS>MOLECULE
R51
   23    22     1     0     0
SMALL
bcc


@<TRIPOS>ATOM
      1 C2         -0.1410    0.0040    0.0130 c         1 R51      0.574900
      2 C5          1.8450    1.5040   -0.1980 c3        1 R51      0.409800
      3 O13         1.1480    2.2220   -1.0440 o         1 R51     -0.874500
      4 C6          3.3800    1.4630   -0.5010 c3        1 R51      0.058100
      5 O14         4.0550    1.1150    0.7060 oh        1 R51     -0.652800
      6 C7          3.8780    2.8190   -1.0160 c3        1 R51      0.172400
      7 O8          5.2820    2.8350   -1.0200 os        1 R51     -0.610200
      8 P9          6.0510    3.1110   -2.4430 p5        1 R51      1.433800
      9 O12         5.3570    4.1990   -3.1690 o         1 R51     -0.851000
     10 O11         7.5050    3.0650   -2.1810 o         1 R51     -0.851000
     11 O10         5.5920    1.7620   -3.2480 oh        1 R51     -0.787400
     12 O4          1.9810   -0.8590    0.7450 oh        1 R51     -0.632800
     13 C4          1.3400   -0.0140   -0.1930 c3        1 R51     -0.066900
     14 O1         -0.7890   -0.6890    0.8100 o         1 R51     -0.635100
     15 H4          1.5390   -0.4490   -1.2130 h1        1 R51      0.046700
     16 H5          1.7510    1.8260    0.8930 h1        1 R51     -0.079300
     17 H13         4.7210    1.8470   -3.6180 ho        1 R51      0.423000
     18 H6          3.6100    0.6710   -1.2670 h1        1 R51      0.011700
     19 H14         4.9800    1.3640    0.5830 ho        1 R51      0.406000
     20 H7C1        3.5190    3.6230   -0.3150 h1        1 R51      0.038200
     21 H7C2        3.4750    3.0190   -2.0430 h1        1 R51      0.038200
     22 HA          2.5850   -0.3010    1.2520 ho        1 R51      0.418000
     23 H2         -0.6550    0.7490   -0.6430 h4        1 R51      0.008200
@<TRIPOS>BOND
     1    1   13 1   
     2    1   14 2   
     3    1   23 1   
     4    2    3 1   
     5    2    4 1   
     6    2   13 1   
     7    2   16 1   
     8    4    5 1   
     9    4    6 1   
    10    4   18 1   
    11    5   19 1   
    12    6    7 1   
    13    6   20 1   
    14    6   21 1   
    15    7    8 1   
    16    8    9 1   
    17    8   10 1   
    18    8   11 1   
    19   11   17 1   
    20   12   13 1   
    21   12   22 1   
    22   13   15 1   
@<TRIPOS>SUBSTRUCTURE
     1 R51         1 TEMP              0 ****  ****    0 ROOT
