@<TRIPOS>MOLECULE
molecule
   23    22     1     0     0
SMALL
bcc


@<TRIPOS>ATOM
      1 C2           0.0000     0.0000     0.0000 c          1 R51       0.536900
      2 C5           2.0180     1.2490    -0.7210 c3         1 R51       0.153100
      3 O13          1.5410     1.2490    -2.0680 oh         1 R51      -0.601800
      4 C6           3.5480     1.2490    -0.7200 c3         1 R51       0.135100
      5 O14          4.0240     1.2490     0.6260 oh         1 R51      -0.601800
      6 C7           4.0580     2.4980    -1.4420 c3         1 R51       0.203400
      7 O8           5.4820     2.4410    -1.5450 os         1 R51      -0.579200
      8 P9           6.3580     3.5940    -2.2480 p5         1 R51       1.180900
      9 O12          6.2270     4.9580    -1.4030 o          1 R51      -0.909500
     10 O11          7.9020     3.1400    -2.2980 o          1 R51      -0.909500
     11 O10          5.8640     3.8170    -3.6250 o          1 R51      -0.909500
     12 O4           1.9840     0.0000     1.3480 oh         1 R51      -0.545800
     13 C4           1.5070     0.0000     0.0000 c3         1 R51       0.019100
     14 O1          -0.6040     0.0000     1.0460 o          1 R51      -0.542100
     15 H4           1.8680    -0.8850    -0.5110 h1         1 R51       0.053700
     16 H5           1.6560     2.1340    -0.2110 h1         1 R51       0.058700
     17 H13          0.9380     1.9630    -2.1880 ho         1 R51       0.400000
     18 H6           3.9090     0.3650    -1.2310 h1         1 R51       0.032700
     19 H14          4.8390     0.7770     0.6720 ho         1 R51       0.410000
     20 H7C1         3.7720     3.3810    -0.8820 h1         1 R51       0.022200
     21 H7C2         3.6260     2.5440    -2.4340 h1         1 R51       0.022200
     22 HA           1.9300    -0.8730     1.7000 ho         1 R51       0.383000
     23 H2          -0.5410    -0.0310    -0.9380 h4         1 R51      -0.012800
@<TRIPOS>BOND
     1     1    14 2
     2     1    13 1
     3     2     3 1
     4     2     4 1
     5     2    13 1
     6     4     5 1
     7     4     6 1
     8     6     7 1
     9     7     8 1
    10     8     9 1
    11     8    10 1
    12     8    11 1
    13    12    13 1
    14     1    23 1
    15    13    15 1
    16     2    16 1
    17     3    17 1
    18     4    18 1
    19     5    19 1
    20     6    20 1
    21     6    21 1
    22    12    22 1
@<TRIPOS>SUBSTRUCTURE
     1 R51         1 TEMP              0 ****  ****    0 ROOT
