@<TRIPOS>MOLECULE
molecule
   23    22     1     0     0
SMALL
bcc


@<TRIPOS>ATOM
      1 O2           0.0000     0.0000     0.0000 o          1 R52      -0.542100
      2 C1           1.2070     0.0000     0.0000 c          1 R52       0.537900
      3 O3           1.0310    -0.0010     2.3920 oh         1 R52      -0.544800
      4 C3           2.8400     1.2500     1.3870 c3         1 R52       0.153100
      5 O4           3.7680     1.2500     0.3010 oh         1 R52      -0.600800
      6 C2           3.6040     1.2500     2.7130 c3         1 R52       0.135100
      7 O5           2.6760     1.2480     3.7990 oh         1 R52      -0.601800
      8 C5           4.4830     2.4990     2.7950 c3         1 R52       0.204400
      9 C4           1.9600     0.0000     1.3050 c3         1 R52       0.018100
     10 O6           5.2840     2.4420     3.9760 os         1 R52      -0.579200
     11 P1           6.3300     3.5950     4.3840 p5         1 R52       1.179900
     12 O9           7.2760     3.8200     3.2680 o          1 R52      -0.909500
     13 O7           5.5320     4.9590     4.6930 o          1 R52      -0.909500
     14 O8           7.1470     3.1410     5.6960 o          1 R52      -0.909500
     15 H4           2.5840    -0.8840     1.3620 h1         1 R52       0.053700
     16 H3           0.7000    -0.8740     2.5210 ho         1 R52       0.383000
     17 HA           2.2160     2.1340     1.3300 h1         1 R52       0.058700
     18 HB           3.5690     1.9640    -0.2820 ho         1 R52       0.400000
     19 H2           4.2270     0.3660     2.7700 h1         1 R52       0.032700
     20 H5           3.0440     0.7750     4.5270 ho         1 R52       0.410000
     21 H5C1         5.1260     2.5460     1.9240 h1         1 R52       0.022200
     22 H5C2         3.8550     3.3810     2.8270 h1         1 R52       0.022200
     23 HC           1.7480    -0.0550    -0.9370 h4         1 R52      -0.013800
@<TRIPOS>BOND
     1     1     2 2
     2     2     9 1
     3     3     9 1
     4     4     5 1
     5     4     6 1
     6     4     9 1
     7     6     7 1
     8     6     8 1
     9     8    10 1
    10    10    11 1
    11    11    12 1
    12    11    13 1
    13    11    14 1
    14     9    15 1
    15     3    16 1
    16     4    17 1
    17     5    18 1
    18     6    19 1
    19     7    20 1
    20     8    21 1
    21     8    22 1
    22     2    23 1
@<TRIPOS>SUBSTRUCTURE
     1 R52         1 TEMP              0 ****  ****    0 ROOT
