@<TRIPOS>MOLECULE
R52
   23    22     1     0     0
SMALL
bcc


@<TRIPOS>ATOM
      1 O2          0.6730    0.3680   -0.5330 o         1 R52     -0.610100
      2 C1          1.1910    1.1480    0.2730 c         1 R52      0.593900
      3 O3          1.0900    1.2560    2.6210 oh        1 R52     -0.655800
      4 C3          3.3080    1.2110    1.5830 c3        1 R52      0.041100
      5 O4          3.8370    1.1230    0.2630 oh        1 R52     -0.647800
      6 C2          4.1880    0.4060    2.5630 c3        1 R52      0.098100
      7 O5          3.4530    0.1140    3.7320 oh        1 R52     -0.656800
      8 C5          5.4570    1.2420    2.9000 c3        1 R52      0.195400
      9 C4          1.8570    0.7120    1.5640 c3        1 R52      0.073100
     10 O6          5.3160    1.9970    4.0360 os        1 R52     -0.573200
     11 P1          4.5150    3.5270    3.8670 p5        1 R52      1.331900
     12 O9          4.8430    3.8970    2.4450 o         1 R52     -0.927500
     13 O7          3.1060    2.9760    3.9940 o         1 R52     -0.927500
     14 O8          5.0580    4.3730    4.9730 o         1 R52     -0.927500
     15 H4          1.8210   -0.4080    1.6660 h1        1 R52      0.048700
     16 H3          1.6750    1.8090    3.1880 ho        1 R52      0.501000
     17 HA          3.3240    2.2980    1.9460 h1        1 R52      0.158700
     18 HB          4.5210    1.8060    0.2280 ho        1 R52      0.421000
     19 H2          4.4650   -0.5840    2.1140 h1        1 R52      0.017700
     20 H5          3.3930    0.9700    4.2230 ho        1 R52      0.475000
     21 H5C1        6.3030    0.5120    3.0640 h1        1 R52     -0.008300
     22 H5C2        5.7070    1.8990    2.0190 h1        1 R52     -0.008300
     23 HC          1.1920    2.2470    0.0960 h4        1 R52     -0.011800
@<TRIPOS>BOND
     1    1    2 2   
     2    2    9 1   
     3    2   23 1   
     4    3    9 1   
     5    3   16 1   
     6    4    5 1   
     7    4    6 1   
     8    4    9 1   
     9    4   17 1   
    10    5   18 1   
    11    6    7 1   
    12    6    8 1   
    13    6   19 1   
    14    7   20 1   
    15    8   10 1   
    16    8   21 1   
    17    8   22 1   
    18    9   15 1   
    19   10   11 1   
    20   11   12 1   
    21   11   13 1   
    22   11   14 1   
@<TRIPOS>SUBSTRUCTURE
     1 R52         1 TEMP              0 ****  ****    0 ROOT
