@<TRIPOS>MOLECULE
R55
   81    85     1     0     0
SMALL
bcc


@<TRIPOS>ATOM
      1 O22          0.0000     0.0000     0.0000 o          1 R55      -0.640100
      2 C21          1.2150     0.0000     0.0000 c          1 R55       0.596700
      3 C14          1.9560     0.0000     1.2840 ca         1 R55      -0.129600
      4 C13          1.2760     0.0000     2.5060 ca         1 R55      -0.182800
      5 C12          2.0060    -0.0000     3.6770 ca         1 R55       0.397700
      6 N11          3.3240    -0.0000     3.6540 nb         1 R55      -0.562000
      7 C16          4.0040    -0.0000     2.5260 ca         1 R55       0.397700
      8 C15          3.3540    -0.0060     1.3060 ca         1 R55      -0.182800
      9 N23          1.8900    -0.0000    -1.1670 ns         1 R55      -0.205900
     10 C31          1.1570     0.0000    -2.4360 c3         1 R55       0.000700
     11 C32          0.8030    -1.4530    -2.7940 c3         1 R55       0.128800
     12 N33          0.3890    -1.6420    -4.2000 n7         1 R55      -0.564200
     13 C34         -0.4750    -0.5500    -4.5790 c3         1 R55       0.124800
     14 C35          0.3930     0.4660    -5.3290 c3         1 R55      -0.036400
     15 C36          1.0410     1.4430    -4.4640 c3         1 R55      -0.032400
     16 C37          1.9900     0.7150    -3.4670 c3         1 R55       0.008700
     17 N41          2.8530     1.6970    -2.8060 ns         1 R55      -0.210900
     18 C42          3.9990     2.0910    -3.3960 c          1 R55       0.594700
     19 O43          4.3150     1.6330    -4.4770 o          1 R55      -0.637100
     20 C51          4.8730     3.0830    -2.7290 ca         1 R55      -0.133600
     21 C52          6.0590     3.4910    -3.3410 ca         1 R55      -0.080000
     22 C53          6.8720     4.4140    -2.7200 ca         1 R55      -0.055000
     23 C56          4.5090     3.6090    -1.4890 ca         1 R55      -0.080000
     24 C55          5.3250     4.5280    -0.8640 ca         1 R55      -0.055000
     25 C54          6.5090     4.9410    -1.4780 ca         1 R55      -0.154600
     26 C61          7.3820     5.9320    -0.8120 c          1 R55       0.663300
     27 O62          8.4610     6.2140    -1.2940 o          1 R55      -0.548100
     28 C71          6.9430     6.5760     0.4390 ca         1 R55      -0.178600
     29 C72          5.9770     7.5930     0.4070 ca         1 R55       0.144100
     30 O99          5.4440     7.9870    -0.7780 oh         1 R55      -0.488100
     31 C73          5.5700     8.1960     1.5880 ca         1 R55      -0.153000
     32 C74          6.1110     7.7960     2.7930 ca         1 R55      -0.125000
     33 C75          7.0690     6.7880     2.8340 ca         1 R55      -0.015400
     34 C76          7.4910     6.1820     1.6630 ca         1 R55      -0.054000
     35 N91          7.6120     6.3900     4.0610 nh         1 R55      -0.346000
     36 C92          6.9720     7.2150     5.0910 c3         1 R55       0.115800
     37 C93          7.5230     6.8410     6.4690 c3         1 R55      -0.018900
     38 C94          9.0300     7.1130     6.5000 c3         1 R55      -0.074000
     39 C97          9.2830     8.6140     6.3370 c3         1 R55       0.001900
     40 C98          9.6090     6.6400     7.8350 c3         1 R55       0.001900
     41 C95          9.6990     6.3530     5.3510 c3         1 R55      -0.018900
     42 C96          9.0330     6.7530     4.0300 c3         1 R55       0.115800
     43 H13          0.1930    -0.0000     2.5330 ha         1 R55       0.124000
     44 H12          1.4890    -0.0000     4.6290 h4         1 R55      -0.015400
     45 H16          5.0870    -0.0030     2.5540 h4         1 R55      -0.015400
     46 H15          3.9190    -0.0060     0.3820 ha         1 R55       0.124000
     47 H23          2.8890    -0.0610    -1.1660 hn         1 R55       0.190500
     48 H31          0.2340     0.5520    -2.3040 h1         1 R55       0.067700
     49 H321         1.6700    -2.0740    -2.6060 h1         1 R55       0.016700
     50 H322        -0.0070    -1.7770    -2.1520 h1         1 R55       0.016700
     51 H33         -0.1070    -2.5060    -4.2880 hn         1 R55       0.255800
     52 H341        -0.8990    -0.0900    -3.6940 h1         1 R55       0.016700
     53 H342        -1.2630    -0.9120    -5.2290 h1         1 R55       0.016700
     54 H351        -0.2320     0.9970    -6.0370 hc         1 R55       0.027200
     55 H352         1.1600    -0.0720    -5.8740 hc         1 R55       0.027200
     56 H361         0.2870     1.9870    -3.9090 hc         1 R55       0.024700
     57 H362         1.6180     2.1320    -5.0690 hc         1 R55       0.024700
     58 H37          2.5950    -0.0050    -4.0040 h1         1 R55       0.080700
     59 H41          2.5650     2.1160    -1.9450 hn         1 R55       0.185500
     60 H52          6.3400     3.0830    -4.3040 ha         1 R55       0.117500
     61 H53          7.7910     4.7330    -3.1950 ha         1 R55       0.122500
     62 H56          3.5910     3.2890    -1.0120 ha         1 R55       0.117500
     63 H55          5.0430     4.9360     0.0990 ha         1 R55       0.122500
     64 H99          5.4950     8.9260    -0.8490 ho         1 R55       0.409000
     65 H73          4.8240     8.9820     1.5640 ha         1 R55       0.114000
     66 H74          5.7860     8.2690     3.7120 ha         1 R55       0.131000
     67 H76          8.2360     5.3970     1.6970 ha         1 R55       0.123000
     68 H921         7.1780     8.2600     4.8940 h1         1 R55       0.024950
     69 H922         5.9030     7.0440     5.0740 h1         1 R55       0.024950
     70 H931         7.3430     5.7890     6.6570 hc         1 R55       0.025450
     71 H932         7.0330     7.4390     7.2280 hc         1 R55       0.025450
     72 H971        10.3310     8.8250     6.5120 hc         1 R55       0.007200
     73 H972         9.0160     8.9180     5.3320 hc         1 R55       0.007200
     74 H973         8.6800     9.1610     7.0520 hc         1 R55       0.007200
     75 H981         9.4080     5.5830     7.9610 hc         1 R55       0.007200
     76 H982        10.6790     6.8070     7.8450 hc         1 R55       0.007200
     77 H983         9.1490     7.1940     8.6450 hc         1 R55       0.007200
     78 H951        10.7520     6.6060     5.3160 hc         1 R55       0.025450
     79 H952         9.5820     5.2870     5.5070 hc         1 R55       0.025450
     80 H961         9.1270     7.8230     3.8900 h1         1 R55       0.024950
     81 H962         9.5180     6.2330     3.2130 h1         1 R55       0.024950
@<TRIPOS>BOND
     1     1     2 2   
     2     2     3 1   
     3     2     9 1   
     4     3     4 ar  
     5     3     8 ar  
     6     4     5 ar  
     7     4    43 1   
     8     5     6 ar  
     9     5    44 1   
    10     6     7 ar  
    11     7     8 ar  
    12     7    45 1   
    13     8    46 1   
    14     9    10 1   
    15     9    47 1   
    16    10    11 1   
    17    10    16 1   
    18    10    48 1   
    19    11    12 1   
    20    11    49 1   
    21    11    50 1   
    22    12    13 1   
    23    12    51 1   
    24    13    14 1   
    25    13    52 1   
    26    13    53 1   
    27    14    15 1   
    28    14    54 1   
    29    14    55 1   
    30    15    16 1   
    31    15    56 1   
    32    15    57 1   
    33    16    17 1   
    34    16    58 1   
    35    17    18 1   
    36    17    59 1   
    37    18    19 2   
    38    18    20 1   
    39    20    21 ar  
    40    20    23 ar  
    41    21    22 ar  
    42    21    60 1   
    43    22    25 ar  
    44    22    61 1   
    45    23    24 ar  
    46    23    62 1   
    47    24    25 ar  
    48    24    63 1   
    49    25    26 1   
    50    26    27 2   
    51    26    28 1   
    52    28    29 ar  
    53    28    34 ar  
    54    29    30 1   
    55    29    31 ar  
    56    30    64 1   
    57    31    32 ar  
    58    31    65 1   
    59    32    33 ar  
    60    32    66 1   
    61    33    34 ar  
    62    33    35 1   
    63    34    67 1   
    64    35    36 1   
    65    35    42 1   
    66    36    37 1   
    67    36    68 1   
    68    36    69 1   
    69    37    38 1   
    70    37    70 1   
    71    37    71 1   
    72    38    39 1   
    73    38    40 1   
    74    38    41 1   
    75    39    72 1   
    76    39    73 1   
    77    39    74 1   
    78    40    75 1   
    79    40    76 1   
    80    40    77 1   
    81    41    42 1   
    82    41    78 1   
    83    41    79 1   
    84    42    80 1   
    85    42    81 1   
@<TRIPOS>SUBSTRUCTURE
     1 R55         1 TEMP              0 ****  ****    0 ROOT
