@<TRIPOS>MOLECULE
R56
   60    62     1     0     0
SMALL
bcc


@<TRIPOS>ATOM
      1 C1           0.0000     0.0000     0.0000 ca         1 R56      -0.088000
      2 C3           1.3820     0.0000     0.0000 ca         1 R56      -0.092500
      3 C5           2.0740     0.0000     1.1970 ca         1 R56      -0.085000
      4 C7           1.3830     0.0010     2.3940 ca         1 R56      -0.099300
      5 C8           0.0010    -0.0040     2.3940 ca         1 R56      -0.085000
      6 C10         -0.6910    -0.0010     1.1970 ca         1 R56      -0.092500
      7 C12          2.1360     0.0010     3.6990 c3         1 R56       0.060700
      8 S15          2.4400     1.7110     4.2230 s6         1 R56       0.953900
      9 O16          1.2400     2.3540     4.6300 o          1 R56      -0.563800
     10 O17          3.3930     2.3520     3.3870 o          1 R56      -0.563800
     11 N18          3.2620     1.5290     5.6480 n7         1 R56      -0.598100
     12 C20          4.5430     0.8190     5.6680 c3         1 R56       0.148500
     13 C22          5.6190     1.7470     6.1560 c          1 R56       0.642500
     14 O23          6.2030     2.4480     5.3600 o          1 R56      -0.630500
     15 N24          5.9600     1.8140     7.4720 n          1 R56      -0.146800
     16 C25          5.5380     0.8180     8.4820 c3         1 R56       0.163800
     17 C27          4.2830     0.0850     8.0400 c3         1 R56      -0.026400
     18 C30          4.4350    -0.3920     6.5960 c3         1 R56      -0.050400
     19 S33          5.1270     1.9400     9.8870 ss         1 R56      -0.414200
     20 C34          6.3850     3.2370     9.5120 c3         1 R56       0.092700
     21 C37          6.7720     2.8830     8.0590 c3         1 R56      -0.055300
     22 C39          8.2170     2.4580     8.0370 c          1 R56       0.564100
     23 O40          8.5180     1.3560     7.6280 o          1 R56      -0.618100
     24 N41          9.1760     3.2980     8.4730 ns         1 R56      -0.208900
     25 C43         10.5800     2.8850     8.4530 c3         1 R56       0.063000
     26 C46         11.4540     4.0160     8.9960 c3         1 R56      -0.047400
     27 C49         12.9210     3.5830     8.9740 c3         1 R56       0.170800
     28 N52         13.7590     4.6670     9.4940 nu         1 R56      -0.490200
     29 C54         15.1220     4.5060     9.5700 c2         1 R56       0.243100
     30 N55         15.9080     5.5230    10.0580 nz         1 R56       0.197400
     31 N58         15.6690     3.3900     9.1810 n2         1 R56      -0.615100
     32 H1          -0.5420     0.0010    -0.9380 ha         1 R56       0.106000
     33 H3           1.9240     0.0000    -0.9380 ha         1 R56       0.107500
     34 H5           3.1580     0.0020     1.1970 ha         1 R56       0.111500
     35 H8          -0.5410    -0.0050     3.3330 ha         1 R56       0.111500
     36 H10         -1.7740    -0.0030     1.1970 ha         1 R56       0.107500
     37 H121         3.0820    -0.5110     3.5700 h1         1 R56       0.068700
     38 H122         1.5500    -0.5100     4.4540 h1         1 R56       0.068700
     39 HNI          2.9020     1.9340     6.4890 hn         1 R56       0.358800
     40 H20          4.7880     0.4820     4.6680 h1         1 R56       0.062700
     41 H25          6.3410     0.1360     8.7350 h2         1 R56       0.073700
     42 H271         3.4350     0.7540     8.1090 hc         1 R56       0.042700
     43 H272         4.1240    -0.7720     8.6840 hc         1 R56       0.042700
     44 H301         5.3320    -0.9930     6.5080 hc         1 R56       0.031700
     45 H302         3.5700    -0.9810     6.3190 hc         1 R56       0.031700
     46 H341         5.8680     4.1890     9.4850 h1         1 R56       0.065200
     47 H342         7.2500     3.0360    10.1330 h1         1 R56       0.065200
     48 H37          6.6600     3.7710     7.4490 h1         1 R56       0.073700
     49 HN           8.9290     4.2130     8.7970 hn         1 R56       0.177500
     50 H431        10.8740     2.6580     7.4350 h1         1 R56       0.033700
     51 H432        10.7050     2.0030     9.0700 h1         1 R56       0.033700
     52 H461        11.1600     4.2430    10.0140 hc         1 R56       0.028200
     53 H462        11.3280     4.8980     8.3800 hc         1 R56       0.028200
     54 H491        13.0470     2.7020     9.5910 h1         1 R56       0.036700
     55 H492        13.2150     3.3570     7.9560 h1         1 R56       0.036700
     56 HN2         13.3390     5.5240     9.7940 hn         1 R56       0.306800
     57 HN51        16.8670     5.2390    10.0450 hn         1 R56       0.223467
     58 HN52        15.6350     5.7340    10.9980 hn         1 R56       0.223467
     59 HN8         15.0990     2.6490     8.8250 hn         1 R56       0.386400
     60 H553        15.7920     6.3370     9.4870 hn         1 R56       0.223467
@<TRIPOS>BOND
     1     1     2 ar  
     2     1     6 ar  
     3     1    32 1   
     4     2     3 ar  
     5     2    33 1   
     6     3     4 ar  
     7     3    34 1   
     8     4     5 ar  
     9     4     7 1   
    10     5     6 ar  
    11     5    35 1   
    12     6    36 1   
    13     7     8 1   
    14     7    37 1   
    15     7    38 1   
    16     8     9 2   
    17     8    10 2   
    18     8    11 1   
    19    11    12 1   
    20    11    39 1   
    21    12    13 1   
    22    12    18 1   
    23    12    40 1   
    24    13    14 2   
    25    13    15 1   
    26    15    16 1   
    27    15    21 1   
    28    16    17 1   
    29    16    19 1   
    30    16    41 1   
    31    17    18 1   
    32    17    42 1   
    33    17    43 1   
    34    18    44 1   
    35    18    45 1   
    36    19    20 1   
    37    20    21 1   
    38    20    46 1   
    39    20    47 1   
    40    21    22 1   
    41    21    48 1   
    42    22    23 2   
    43    22    24 1   
    44    24    25 1   
    45    24    49 1   
    46    25    26 1   
    47    25    50 1   
    48    25    51 1   
    49    26    27 1   
    50    26    52 1   
    51    26    53 1   
    52    27    28 1   
    53    27    54 1   
    54    27    55 1   
    55    28    29 1   
    56    28    56 1   
    57    29    30 1   
    58    29    31 2   
    59    30    57 1   
    60    30    58 1   
    61    30    60 1   
    62    31    59 1   
@<TRIPOS>SUBSTRUCTURE
     1 R56         1 TEMP              0 ****  ****    0 ROOT
