@<TRIPOS>MOLECULE
R57
   40    42     1     0     0
SMALL
bcc


@<TRIPOS>ATOM
      1 FAU          0.0000     0.0000     0.0000 f          1 R57      -0.127900
      2 CAU          1.3520     0.0000     0.0000 ca         1 R57       0.065900
      3 CAV          2.0460     0.0000     1.2030 ca         1 R57       0.116100
      4 OAW          1.3690     0.0010     2.3820 os         1 R57      -0.299900
      5 CAX          2.1500     0.0010     3.5780 c3         1 R57       0.243700
      6 CAY          3.4330     0.0000     1.1990 ca         1 R57      -0.194000
      7 CAZ          4.1200    -0.0010    -0.0000 ca         1 R57      -0.050000
      8 CAT          2.0440    -0.0060    -1.1960 ca         1 R57      -0.074000
      9 CAS          3.4270    -0.0010    -1.1970 ca         1 R57      -0.110300
     10 CAR          4.1800    -0.0080    -2.5010 c3         1 R57       0.224100
     11 NAQ          4.4180     1.3710    -2.9350 nu         1 R57      -0.540900
     12 CAP          5.0950     1.6170    -4.1140 ca         1 R57       0.454900
     13 CAC          5.2250     2.9470    -4.5780 ca         1 R57       0.211500
     14 CAB          4.6320     4.0520    -3.7930 c          1 R57       0.876100
     15 OAA          4.6480     5.3070    -4.2810 o          1 R57      -0.850300
     16 OBA          4.1300     3.8270    -2.7110 o          1 R57      -0.850300
     17 NAD          5.8670     3.2180    -5.6990 nb         1 R57      -0.457000
     18 CAE          6.4020     2.2250    -6.4090 ca         1 R57       0.201300
     19 CAF          7.0960     2.4620    -7.6100 ca         1 R57      -0.096300
     20 CAG          7.6240     1.4120    -8.2960 ca         1 R57      -0.133000
     21 NAO          5.6170     0.6090    -4.7880 nb         1 R57      -0.713000
     22 CAN          6.2690     0.8460    -5.9300 ca         1 R57       0.316300
     23 CAM          6.8390    -0.1910    -6.6860 ca         1 R57      -0.108300
     24 CAH          7.4980     0.1030    -7.8400 ca         1 R57      -0.202300
     25 CAI          8.1050    -1.0170    -8.6450 c3         1 R57       0.634200
     26 FAJ          7.1000    -1.9090    -9.0340 f          1 R57      -0.216300
     27 FAK          8.7280    -0.4890    -9.7810 f          1 R57      -0.216300
     28 FAL          9.0510    -1.6910    -7.8660 f          1 R57      -0.216300
     29 H1           2.7750     0.8850     3.6020 h1         1 R57      -0.004633
     30 H2           2.7740    -0.8840     3.6020 h1         1 R57      -0.004633
     31 H3           1.4910     0.0020     4.4390 h1         1 R57      -0.004633
     32 H4           3.9780     0.0000     2.1360 ha         1 R57       0.119000
     33 H5           5.2040     0.0010    -0.0030 ha         1 R57       0.110000
     34 H6           1.5020    -0.0070    -2.1350 ha         1 R57       0.126000
     35 H7           3.5960    -0.5270    -3.2520 h1         1 R57       0.017200
     36 H8           5.1280    -0.5140    -2.3680 h1         1 R57       0.017200
     37 H9           4.1160     2.1350    -2.3630 hn         1 R57       0.395800
     38 H11          7.2070     3.4720    -7.9860 ha         1 R57       0.115000
     39 H12          8.1570     1.6010    -9.2200 ha         1 R57       0.109000
     40 H13          6.7550    -1.2180    -6.3530 ha         1 R57       0.115000
@<TRIPOS>BOND
     1     1     2 1   
     2     2     3 ar  
     3     2     8 ar  
     4     3     4 1   
     5     3     6 ar  
     6     4     5 1   
     7     5    29 1   
     8     5    30 1   
     9     5    31 1   
    10     6     7 ar  
    11     6    32 1   
    12     7     9 ar  
    13     7    33 1   
    14     8     9 ar  
    15     8    34 1   
    16     9    10 1   
    17    10    11 1   
    18    10    35 1   
    19    10    36 1   
    20    11    12 1   
    21    11    37 1   
    22    12    13 ar  
    23    12    21 ar  
    24    13    14 1   
    25    13    17 ar  
    26    14    15 1   
    27    14    16 1   
    28    17    18 ar  
    29    18    19 ar  
    30    18    22 ar  
    31    19    20 ar  
    32    19    38 1   
    33    20    24 ar  
    34    20    39 1   
    35    21    22 ar  
    36    22    23 ar  
    37    23    24 ar  
    38    23    40 1   
    39    24    25 1   
    40    25    26 1   
    41    25    27 1   
    42    25    28 1   
@<TRIPOS>SUBSTRUCTURE
     1 R57         1 TEMP              0 ****  ****    0 ROOT
