@<TRIPOS>MOLECULE
molecule
   40    42     1     0     0
SMALL
bcc


@<TRIPOS>ATOM
      1 FAU          0.0000     0.0000     0.0000 f          1 R57      -0.138900
      2 CAU          1.3520     0.0000     0.0000 ca         1 R57       0.101900
      3 CAV          2.0460     0.0000     1.2030 ca         1 R57       0.099100
      4 OAW          1.3690     0.0010     2.3820 os         1 R57      -0.322900
      5 CAX          2.1500     0.0010     3.5780 c3         1 R57       0.130700
      6 CAY          3.4330     0.0000     1.1990 ca         1 R57      -0.204000
      7 CAZ          4.1200    -0.0010    -0.0000 ca         1 R57      -0.086000
      8 CAT          2.0440    -0.0060    -1.1960 ca         1 R57      -0.111000
      9 CAS          3.4270    -0.0010    -1.1970 ca         1 R57      -0.104300
     10 CAR          4.1800    -0.0080    -2.5010 c3         1 R57       0.280100
     11 NAQ          4.4180     1.3710    -2.9350 nu         1 R57      -0.895900
     12 CAP          5.0950     1.6170    -4.1140 ca         1 R57       0.609900
     13 CAC          5.2250     2.9470    -4.5780 ca         1 R57       0.276500
     14 CAB          4.6320     4.0520    -3.7930 c          1 R57       0.789100
     15 OAA          4.6480     5.3070    -4.2810 o          1 R57      -0.800800
     16 OBA          4.1300     3.8270    -2.7110 o          1 R57      -0.800800
     17 NAD          5.8670     3.2180    -5.6990 nb         1 R57      -0.583000
     18 CAE          6.4020     2.2250    -6.4090 ca         1 R57       0.249300
     19 CAF          7.0960     2.4620    -7.6100 ca         1 R57      -0.126300
     20 CAG          7.6240     1.4120    -8.2960 ca         1 R57      -0.152000
     21 NAO          5.6170     0.6090    -4.7880 nb         1 R57      -0.791000
     22 CAN          6.2690     0.8460    -5.9300 ca         1 R57       0.341300
     23 CAM          6.8390    -0.1910    -6.6860 ca         1 R57      -0.136300
     24 CAH          7.4980     0.1030    -7.8400 ca         1 R57      -0.173300
     25 CAI          8.1050    -1.0170    -8.6450 c3         1 R57       0.669200
     26 FAJ          7.1000    -1.9090    -9.0340 f          1 R57      -0.233300
     27 FAK          8.7280    -0.4890    -9.7810 f          1 R57      -0.233300
     28 FAL          9.0510    -1.6910    -7.8660 f          1 R57      -0.233300
     29 H1           2.7750     0.8850     3.6020 h1         1 R57       0.038367
     30 H2           2.7740    -0.8840     3.6020 h1         1 R57       0.038367
     31 H3           1.4910     0.0020     4.4390 h1         1 R57       0.038367
     32 H4           3.9780     0.0000     2.1360 ha         1 R57       0.135000
     33 H5           5.2040     0.0010    -0.0030 ha         1 R57       0.140000
     34 H6           1.5020    -0.0070    -2.1350 ha         1 R57       0.156000
     35 H7           3.5960    -0.5270    -3.2520 h1         1 R57       0.045700
     36 H8           5.1280    -0.5140    -2.3680 h1         1 R57       0.045700
     37 H9           4.1160     2.1350    -2.3630 hn         1 R57       0.514800
     38 H11          7.2070     3.4720    -7.9860 ha         1 R57       0.149000
     39 H12          8.1570     1.6010    -9.2200 ha         1 R57       0.133000
     40 H13          6.7550    -1.2180    -6.3530 ha         1 R57       0.144000
@<TRIPOS>BOND
     1     1     2 1
     2    16    14 1
     3    15    14 1
     4    14    13 1
     5     2     8 ar
     6     2     3 ar
     7     4     3 1
     8     4     5 1
     9     8     9 ar
    10    13    17 ar
    11    13    12 ar
    12     3     6 ar
    13    17    18 ar
    14    11    12 1
    15    11    10 1
    16    12    21 ar
    17     9    10 1
    18     9     7 ar
    19    18    19 ar
    20    18    22 ar
    21     6     7 ar
    22    19    20 ar
    23    21    22 ar
    24    22    23 ar
    25    20    24 ar
    26    23    24 ar
    27    24    25 1
    28    28    25 1
    29    25    27 1
    30    25    26 1
    31     5    29 1
    32     5    30 1
    33     5    31 1
    34     6    32 1
    35     7    33 1
    36     8    34 1
    37    10    35 1
    38    10    36 1
    39    11    37 1
    40    19    38 1
    41    20    39 1
    42    23    40 1
@<TRIPOS>SUBSTRUCTURE
     1 R57         1 TEMP              0 ****  ****    0 ROOT
