@<TRIPOS>MOLECULE
molecule
   43    45     1     0     0
SMALL
bcc


@<TRIPOS>ATOM
      1 FAL          0.0000     0.0000     0.0000 f          1 R58      -0.233300
      2 CAI          1.3990     0.0000     0.0000 c3         1 R58       0.668200
      3 FAJ          1.8660     0.0000     1.3190 f          1 R58      -0.233300
      4 FAK          1.8660    -1.1410    -0.6600 f          1 R58      -0.233300
      5 CAH          1.9010     1.2320    -0.7100 ca         1 R58      -0.173300
      6 CAG          2.1210     1.1800    -2.0840 ca         1 R58      -0.150000
      7 CAF          2.5680     2.2620    -2.7760 ca         1 R58      -0.125300
      8 CAM          2.1210     2.3680     0.0070 ca         1 R58      -0.137300
      9 CAN          2.5890     3.5190    -0.6470 ca         1 R58       0.340300
     10 CAE          2.8160     3.4680    -2.0920 ca         1 R58       0.248300
     11 NAD          3.2540     4.5550    -2.7250 nb         1 R58      -0.583000
     12 CAC          3.4720     5.6650    -2.0420 ca         1 R58       0.276500
     13 CAB          3.9580     6.8700    -2.7470 c          1 R58       0.789100
     14 OBA          4.0640     7.9210    -2.1490 o          1 R58      -0.801800
     15 OAA          4.2830     6.8020    -4.0530 o          1 R58      -0.801800
     16 NAO          2.8190     4.6580     0.0140 nb         1 R58      -0.790000
     17 CAP          3.2480     5.7180    -0.6470 ca         1 R58       0.608900
     18 NAQ          3.4860     6.8960     0.0360 nu         1 R58      -0.893900
     19 CAR          3.3720     6.9310     1.4960 c3         1 R58       0.280100
     20 CAS          3.6800     8.3220     1.9890 ca         1 R58      -0.130300
     21 CAT          2.6620     9.2490     2.1180 ca         1 R58      -0.071000
     22 CAU          2.9420    10.5250     2.5700 ca         1 R58      -0.195000
     23 CAZ          4.9780     8.6650     2.3190 ca         1 R58      -0.071000
     24 CAY          5.2630     9.9390     2.7730 ca         1 R58      -0.195000
     25 CAV          4.2460    10.8730     2.8960 ca         1 R58       0.138100
     26 OAW          4.5230    12.1270     3.3430 os         1 R58      -0.337900
     27 CAX          3.4260    13.0370     3.4450 c3         1 R58       0.138400
     28 CAX3         3.9290    14.3860     3.9610 c3         1 R58      -0.093100
     29 H1           1.9320     0.2550    -2.6150 ha         1 R58       0.129000
     30 H2           2.7320     2.1970    -3.8450 ha         1 R58       0.148000
     31 H3           1.8140     2.4210     1.0450 ha         1 R58       0.146000
     32 H5           3.7000     7.7330    -0.4690 hn         1 R58       0.514800
     33 H6           4.0740     6.2300     1.9300 h1         1 R58       0.043200
     34 H7           2.3640     6.6590     1.7860 h1         1 R58       0.043200
     35 H8           1.6460     8.9760     1.8630 ha         1 R58       0.138000
     36 H9           2.1460    11.2520     2.6690 ha         1 R58       0.132000
     37 H10          5.7730     7.9350     2.2220 ha         1 R58       0.138000
     38 H11          6.2800    10.2080     3.0290 ha         1 R58       0.132000
     39 H12          2.9740    13.1690     2.4700 h1         1 R58       0.033700
     40 H13          2.6900    12.6390     4.1330 h1         1 R58       0.033700
     41 H14          3.0980    15.0760     4.0390 hc         1 R58       0.043367
     42 H15          4.6660    14.7830     3.2730 hc         1 R58       0.043367
     43 H16          4.3810    14.2530     4.9370 hc         1 R58       0.043367
@<TRIPOS>BOND
     1    14    13 1
     2    15    13 1
     3    13    12 1
     4    28    27 1
     5    27    26 1
     6    11    12 ar
     7    11    10 ar
     8    12    17 ar
     9     7    10 ar
    10     7     6 ar
    11    10     9 ar
    12    24    23 ar
    13    24    25 ar
    14    26    25 1
    15    17    18 1
    16    17    16 ar
    17    23    20 ar
    18    25    22 ar
    19    18    19 1
    20     6     5 ar
    21    20    19 1
    22    20    21 ar
    23    22    21 ar
    24     9    16 ar
    25     9     8 ar
    26     5     8 ar
    27     5     2 1
    28     4     2 1
    29     2     1 1
    30     2     3 1
    31     6    29 1
    32     7    30 1
    33     8    31 1
    34    18    32 1
    35    19    33 1
    36    19    34 1
    37    21    35 1
    38    22    36 1
    39    23    37 1
    40    24    38 1
    41    27    39 1
    42    27    40 1
    43    28    41 1
    44    28    42 1
    45    28    43 1
@<TRIPOS>SUBSTRUCTURE
     1 R58         1 TEMP              0 ****  ****    0 ROOT
