@<TRIPOS>MOLECULE
R59
   38    39     1     0     0
SMALL
bcc


@<TRIPOS>ATOM
      1 C21          0.0000     0.0000     0.0000 c3         1 R59      -0.015100
      2 C14          2.0780    -2.3120    -4.1560 ca         1 R59      -0.148000
      3 C13          3.2860    -2.9000    -4.5030 ca         1 R59      -0.095000
      4 C12          4.3820    -2.1240    -4.8110 ca         1 R59      -0.115000
      5 C16          2.0320     1.2300    -0.7110 c          1 R59       0.573100
      6 C15          1.9510    -0.9520    -4.1190 ca         1 R59      -0.041000
      7 C02          2.1950     2.6380    -2.6920 c3         1 R59      -0.098300
      8 C03          1.2650     3.7930    -2.4180 c          1 R59       0.976600
      9 C06          2.2450     2.3720    -4.1980 c3         1 R59       0.062800
     10 C07          3.2660     1.3010    -4.4860 cc         1 R59      -0.115400
     11 C08          3.0480    -0.1460    -4.4330 ca         1 R59      -0.097800
     12 C09          4.2780    -0.7370    -4.7750 ca         1 R59      -0.227200
     13 C11          4.5480     1.4940    -4.8360 cd         1 R59      -0.279100
     14 C18          1.5300     0.0000     0.0000 c3         1 R59      -0.107700
     15 C19          2.0410     0.0000     1.4420 c3         1 R59       0.136700
     16 N10          5.1680     0.2860    -5.0140 na         1 R59       0.339600
     17 O04          1.5160     4.9980    -2.9530 o          1 R59      -0.889800
     18 O05          0.2940     3.6330    -1.7170 o          1 R59      -0.889800
     19 S20          1.5610    -1.5490     2.2540 sh         1 R59      -0.447900
     20 H1          -0.3610     1.0150     0.1110 hc         1 R59       0.018700
     21 H2          -0.3610    -0.4110    -0.9350 hc         1 R59       0.018700
     22 H3          -0.3610    -0.6040     0.8240 hc         1 R59       0.018700
     23 H6           5.3210    -2.5920    -5.0810 ha         1 R59       0.090000
     24 H7           1.0050    -0.5010    -3.8470 ha         1 R59       0.109000
     25 H8           3.1880     2.8820    -2.3350 h1         1 R59       0.057700
     26 H9           2.5210     3.2820    -4.7170 hc         1 R59       0.031700
     27 H10          1.2710     2.0430    -4.5390 hc         1 R59       0.031700
     28 H11          5.0210     2.4600    -4.9590 h4         1 R59       0.147000
     29 H12          1.8910    -0.8850    -0.5100 hc         1 R59       0.039700
     30 H13          1.6100     0.8370     1.9780 h1         1 R59       0.048200
     31 H14          3.1200     0.0880     1.4430 h1         1 R59       0.048200
     32 H16          6.1260     0.1660    -5.2770 hn         1 R59       0.104700
     33 H18          2.3150    -1.7380     3.3300 hs         1 R59       0.170800
     34 N01          1.7070     1.4430    -2.0010 ns         1 R59      -0.132900
     35 H4           1.2260    -2.9380    -3.9170 ha         1 R59       0.097000
     36 H15          1.0900     0.8100    -2.4720 hn         1 R59       0.162500
     37 O17          2.7300     2.0290    -0.1230 o          1 R59      -0.673100
     38 H5           3.3700    -3.9790    -4.5280 ha         1 R59       0.091000
@<TRIPOS>BOND
     1     1    14 1   
     2     1    20 1   
     3     1    21 1   
     4     1    22 1   
     5     2     3 ar  
     6     2     6 ar  
     7     2    35 1   
     8     3     4 ar  
     9     3    38 1   
    10     4    12 ar  
    11     4    23 1   
    12     5    14 1   
    13     5    34 1   
    14     5    37 2   
    15     6    11 ar  
    16     6    24 1   
    17     7     8 1   
    18     7     9 1   
    19     7    25 1   
    20     7    34 1   
    21     8    17 1   
    22     8    18 1   
    23     9    10 1   
    24     9    26 1   
    25     9    27 1   
    26    10    11 1   
    27    10    13 2   
    28    11    12 ar  
    29    12    16 1   
    30    13    16 1   
    31    13    28 1   
    32    14    15 1   
    33    14    29 1   
    34    15    19 1   
    35    15    30 1   
    36    15    31 1   
    37    16    32 1   
    38    19    33 1   
    39    34    36 1   
@<TRIPOS>SUBSTRUCTURE
     1 R59         1 TEMP              0 ****  ****    0 ROOT
