@<TRIPOS>MOLECULE
molecule
   38    39     1     0     0
SMALL
bcc


@<TRIPOS>ATOM
      1 C21          0.0000     0.0000     0.0000 c3         1 R59      -0.093100
      2 C14          2.0780    -2.3120    -4.1560 ca         1 R59      -0.171000
      3 C13          3.2860    -2.9000    -4.5030 ca         1 R59      -0.119000
      4 C12          4.3820    -2.1240    -4.8110 ca         1 R59      -0.153000
      5 C16          2.0320     1.2300    -0.7110 c          1 R59       0.670100
      6 C15          1.9510    -0.9520    -4.1190 ca         1 R59      -0.072000
      7 C02          2.1950     2.6380    -2.6920 c3         1 R59       0.010700
      8 C03          1.2650     3.7930    -2.4180 c          1 R59       0.885600
      9 C06          2.2450     2.3720    -4.1980 c3         1 R59      -0.009200
     10 C07          3.2660     1.3010    -4.4860 cc         1 R59      -0.121400
     11 C08          3.0480    -0.1460    -4.4330 ca         1 R59      -0.093800
     12 C09          4.2780    -0.7370    -4.7750 ca         1 R59      -0.042200
     13 C11          4.5480     1.4940    -4.8360 cd         1 R59      -0.117100
     14 C18          1.5300     0.0000     0.0000 c3         1 R59      -0.136700
     15 C19          2.0410     0.0000     1.4420 c3         1 R59       0.079700
     16 N10          5.1680     0.2860    -5.0140 na         1 R59      -0.192400
     17 O04          1.5160     4.9980    -2.9530 o          1 R59      -0.839800
     18 O05          0.2940     3.6330    -1.7170 o          1 R59      -0.839800
     19 S20          1.5610    -1.5490     2.2540 sh         1 R59      -0.472900
     20 H1          -0.3610     1.0150     0.1110 hc         1 R59       0.046700
     21 H2          -0.3610    -0.4110    -0.9350 hc         1 R59       0.046700
     22 H3          -0.3610    -0.6040     0.8240 hc         1 R59       0.046700
     23 H6           5.3210    -2.5920    -5.0810 ha         1 R59       0.113000
     24 H7           1.0050    -0.5010    -3.8470 ha         1 R59       0.132000
     25 H8           3.1880     2.8820    -2.3350 h1         1 R59       0.075700
     26 H9           2.5210     3.2820    -4.7170 hc         1 R59       0.062700
     27 H10          1.2710     2.0430    -4.5390 hc         1 R59       0.062700
     28 H11          5.0210     2.4600    -4.9590 h4         1 R59       0.170000
     29 H12          1.8910    -0.8850    -0.5100 hc         1 R59       0.065700
     30 H13          1.6100     0.8370     1.9780 h1         1 R59       0.073700
     31 H14          3.1200     0.0880     1.4430 h1         1 R59       0.073700
     32 H16          6.1260     0.1660    -5.2770 hn         1 R59       0.283700
     33 H18          2.3150    -1.7380     3.3300 hs         1 R59       0.204800
     34 N01          1.7070     1.4430    -2.0010 ns         1 R59      -0.537900
     35 H4           1.2260    -2.9380    -3.9170 ha         1 R59       0.120000
     36 H15          1.0900     0.8100    -2.4720 hn         1 R59       0.299500
     37 O17          2.7300     2.0290    -0.1230 o          1 R59      -0.629100
     38 H5           3.3700    -3.9790    -4.5280 ha         1 R59       0.117000
@<TRIPOS>BOND
     1    18     8 1
     2    17     8 1
     3    19    15 1
     4     8     7 1
     5     7    34 1
     6     7     9 1
     7    15    14 1
     8    34     5 1
     9     5    37 2
    10     5    14 1
    11    14     1 1
    12    13    10 2
    13    13    16 1
    14     9    10 1
    15    10    11 1
    16    16    12 1
    17    11    12 ar
    18    11     6 ar
    19    12     4 ar
    20     6     2 ar
    21     4     3 ar
    22     2     3 ar
    23     1    20 1
    24     1    21 1
    25     1    22 1
    26     2    35 1
    27     3    38 1
    28     4    23 1
    29     6    24 1
    30     7    25 1
    31     9    26 1
    32     9    27 1
    33    13    28 1
    34    14    29 1
    35    15    30 1
    36    15    31 1
    37    34    36 1
    38    16    32 1
    39    19    33 1
@<TRIPOS>SUBSTRUCTURE
     1 R59         1 TEMP              0 ****  ****    0 ROOT
