@<TRIPOS>MOLECULE
molecule
   44    45     1     0     0
SMALL
bcc


@<TRIPOS>ATOM
      1 CAA          0.0000     0.0000     0.0000 c3         1 R5T      -0.106433
      2 CAX          1.5300     0.0000     0.0000 c3         1 R5T       0.178800
      3 CAB          2.0410     0.0000     1.4430 c3         1 R5T      -0.106433
      4 CAC          2.0400    -1.2500    -0.7200 c3         1 R5T      -0.106433
      5 OAQ          2.0140     1.1850    -0.6850 os         1 R5T      -0.432900
      6 CAR          1.6520     2.3780    -0.1740 c          1 R5T       0.767100
      7 OAD          0.9510     2.4260     0.8170 o          1 R5T      -0.616000
      8 N            2.0670     3.5170    -0.7620 ns         1 R5T      -0.551900
      9 CA           1.6740     4.8130    -0.2060 c3         1 R5T       0.129000
     10 C            0.3190     5.2000    -0.7430 c          1 R5T       0.658100
     11 O           -0.2600     4.4650    -1.5140 o          1 R5T      -0.554100
     12 NAO         -0.2480     6.3630    -0.3660 ns         1 R5T      -0.468400
     13 OAF         -1.5210     6.7260    -0.8700 oh         1 R5T      -0.359100
     14 CAT          2.6870     5.8570    -0.5990 ca         1 R5T      -0.129300
     15 CAJ          3.2220     5.8520    -1.8750 ca         1 R5T      -0.096000
     16 CAL          4.1510     6.8080    -2.2380 ca         1 R5T      -0.140500
     17 CAI          3.0740     6.8210     0.3130 ca         1 R5T      -0.096000
     18 CAK          4.0020     7.7800    -0.0450 ca         1 R5T      -0.140500
     19 CAU          4.5460     7.7740    -1.3230 ca         1 R5T       0.055800
     20 NAW          5.4890     8.7450    -1.6890 na         1 R5T       0.143300
     21 NAN          6.1110     8.8600    -2.9380 nc         1 R5T      -0.505800
     22 CAH          6.9240     9.8840    -2.8970 cd         1 R5T       0.344200
     23 CAG          6.8470    10.4550    -1.6220 cd         1 R5T      -0.339300
     24 CAM          5.9540     9.7400    -0.9000 cc         1 R5T      -0.109300
     25 H1          -0.3610    -1.0150     0.1120 hc         1 R5T       0.050367
     26 H2          -0.3610     0.4100    -0.9350 hc         1 R5T       0.050367
     27 H3          -0.3610     0.6050     0.8230 hc         1 R5T       0.050367
     28 H4           3.0550     0.3790     1.4660 hc         1 R5T       0.050367
     29 H5           2.0230    -1.0110     1.8320 hc         1 R5T       0.050367
     30 H6           1.4050     0.6320     2.0510 hc         1 R5T       0.050367
     31 H7           3.1230    -1.2490    -0.7200 hc         1 R5T       0.050367
     32 H8           1.6790    -1.2510    -1.7410 hc         1 R5T       0.050367
     33 H9           1.6790    -2.1340    -0.2090 hc         1 R5T       0.050367
     34 H10          2.6710     3.4770    -1.5590 hn         1 R5T       0.334500
     35 H11          1.6280     4.7440     0.8740 h1         1 R5T       0.099700
     36 H12          0.2070     6.9450     0.3090 hn         1 R5T       0.318500
     37 H13         -1.8820     7.4190    -0.3430 ho         1 R5T       0.397000
     38 H14          2.9140     5.0980    -2.5890 ha         1 R5T       0.142000
     39 H15          4.5720     6.8020    -3.2360 ha         1 R5T       0.153500
     40 H16          2.6490     6.8250     1.3100 ha         1 R5T       0.142000
     41 H17          4.3070     8.5340     0.6700 ha         1 R5T       0.153500
     42 H18          7.5510    10.2290    -3.7100 h4         1 R5T       0.054100
     43 H19          7.4000    11.3200    -1.2760 ha         1 R5T       0.160000
     44 H20          5.6680     9.9270     0.1280 h4         1 R5T       0.173000
@<TRIPOS>BOND
     1     3     2 1
     2     1     2 1
     3     2     4 1
     4     2     5 1
     5    13    12 1
     6     5     6 1
     7    11    10 2
     8    12    10 1
     9    10     9 1
    10     7     6 2
    11     6     8 1
    12     8     9 1
    13     9    14 1
    14    14    17 ar
    15    14    15 ar
    16    17    18 ar
    17    15    16 ar
    18    18    19 ar
    19    16    19 ar
    20    19    20 1
    21    20    21 1
    22    20    24 1
    23    21    22 2
    24    24    23 2
    25    22    23 1
    26     1    25 1
    27     1    26 1
    28     1    27 1
    29     3    28 1
    30     3    29 1
    31     3    30 1
    32     4    31 1
    33     4    32 1
    34     4    33 1
    35     8    34 1
    36     9    35 1
    37    12    36 1
    38    13    37 1
    39    15    38 1
    40    16    39 1
    41    17    40 1
    42    18    41 1
    43    22    42 1
    44    23    43 1
    45    24    44 1
@<TRIPOS>SUBSTRUCTURE
     1 R5T         1 TEMP              0 ****  ****    0 ROOT
