@<TRIPOS>MOLECULE
R5T
   44    45     1     0     0
SMALL
bcc


@<TRIPOS>ATOM
      1 CAA          0.0000     0.0000     0.0000 c3         1 R5T      -0.029767
      2 CAX          1.5300     0.0000     0.0000 c3         1 R5T       0.196800
      3 CAB          2.0410     0.0000     1.4430 c3         1 R5T      -0.029767
      4 CAC          2.0400    -1.2500    -0.7200 c3         1 R5T      -0.029767
      5 OAQ          2.0140     1.1850    -0.6850 os         1 R5T      -0.415900
      6 CAR          1.6520     2.3780    -0.1740 c          1 R5T       0.698100
      7 OAD          0.9510     2.4260     0.8170 o          1 R5T      -0.666000
      8 N            2.0670     3.5170    -0.7620 ns         1 R5T      -0.148900
      9 CA           1.6740     4.8130    -0.2060 c3         1 R5T       0.028000
     10 C            0.3190     5.2000    -0.7430 c          1 R5T       0.559100
     11 O           -0.2600     4.4650    -1.5140 o          1 R5T      -0.604100
     12 NAO         -0.2480     6.3630    -0.3660 ns         1 R5T      -0.050400
     13 OAF         -1.5210     6.7260    -0.8700 oh         1 R5T      -0.435100
     14 CAT          2.6870     5.8570    -0.5990 ca         1 R5T      -0.131300
     15 CAJ          3.2220     5.8520    -1.8750 ca         1 R5T      -0.071500
     16 CAL          4.1510     6.8080    -2.2380 ca         1 R5T      -0.103500
     17 CAI          3.0740     6.8210     0.3130 ca         1 R5T      -0.071500
     18 CAK          4.0020     7.7800    -0.0450 ca         1 R5T      -0.103500
     19 CAU          4.5460     7.7740    -1.3230 ca         1 R5T      -0.125200
     20 NAW          5.4890     8.7450    -1.6890 na         1 R5T       0.619300
     21 NAN          6.1110     8.8600    -2.9380 nc         1 R5T      -0.658800
     22 CAH          6.9240     9.8840    -2.8970 cd         1 R5T       0.405200
     23 CAG          6.8470    10.4550    -1.6220 cd         1 R5T      -0.318300
     24 CAM          5.9540     9.7400    -0.9000 cc         1 R5T      -0.265300
     25 H1          -0.3610    -1.0150     0.1120 hc         1 R5T       0.019144
     26 H2          -0.3610     0.4100    -0.9350 hc         1 R5T       0.019144
     27 H3          -0.3610     0.6050     0.8230 hc         1 R5T       0.019144
     28 H4           3.0550     0.3790     1.4660 hc         1 R5T       0.019144
     29 H5           2.0230    -1.0110     1.8320 hc         1 R5T       0.019144
     30 H6           1.4050     0.6320     2.0510 hc         1 R5T       0.019144
     31 H7           3.1230    -1.2490    -0.7200 hc         1 R5T       0.019144
     32 H8           1.6790    -1.2510    -1.7410 hc         1 R5T       0.019144
     33 H9           1.6790    -2.1340    -0.2090 hc         1 R5T       0.019144
     34 H10          2.6710     3.4770    -1.5590 hn         1 R5T       0.184500
     35 H11          1.6280     4.7440     0.8740 h1         1 R5T       0.068700
     36 H12          0.2070     6.9450     0.3090 hn         1 R5T       0.155500
     37 H13         -1.8820     7.4190    -0.3430 ho         1 R5T       0.391000
     38 H14          2.9140     5.0980    -2.5890 ha         1 R5T       0.115500
     39 H15          4.5720     6.8020    -3.2360 ha         1 R5T       0.128500
     40 H16          2.6490     6.8250     1.3100 ha         1 R5T       0.115500
     41 H17          4.3070     8.5340     0.6700 ha         1 R5T       0.128500
     42 H18          7.5510    10.2290    -3.7100 h4         1 R5T       0.006100
     43 H19          7.4000    11.3200    -1.2760 ha         1 R5T       0.136000
     44 H20          5.6680     9.9270     0.1280 h4         1 R5T       0.149000
@<TRIPOS>BOND
     1     1     2 1   
     2     1    25 1   
     3     1    26 1   
     4     1    27 1   
     5     2     3 1   
     6     2     4 1   
     7     2     5 1   
     8     3    28 1   
     9     3    29 1   
    10     3    30 1   
    11     4    31 1   
    12     4    32 1   
    13     4    33 1   
    14     5     6 1   
    15     6     7 2   
    16     6     8 1   
    17     8     9 1   
    18     8    34 1   
    19     9    10 1   
    20     9    14 1   
    21     9    35 1   
    22    10    11 2   
    23    10    12 1   
    24    12    13 1   
    25    12    36 1   
    26    13    37 1   
    27    14    15 ar  
    28    14    17 ar  
    29    15    16 ar  
    30    15    38 1   
    31    16    19 ar  
    32    16    39 1   
    33    17    18 ar  
    34    17    40 1   
    35    18    19 ar  
    36    18    41 1   
    37    19    20 1   
    38    20    21 1   
    39    20    24 1   
    40    21    22 2   
    41    22    23 1   
    42    22    42 1   
    43    23    24 2   
    44    23    43 1   
    45    24    44 1   
@<TRIPOS>SUBSTRUCTURE
     1 R5T         1 TEMP              0 ****  ****    0 ROOT
