@<TRIPOS>MOLECULE
molecule
   43    44     1     0     0
SMALL
bcc


@<TRIPOS>ATOM
      1 CAA          0.0000     0.0000     0.0000 c3         1 R5V      -0.078767
      2 CAB          1.5310     0.0000     0.0000 c3         1 R5V      -0.138000
      3 CAC          2.0410     0.0000     1.4410 c3         1 R5V      -0.078767
      4 CAD          2.0410    -1.2490    -0.7220 c3         1 R5V      -0.078767
      5 CAE          2.0320     1.2310    -0.7110 c          1 R5V       0.679100
      6 OAF          1.2430     2.0290    -1.1710 o          1 R5V      -0.605100
      7 N            3.3560     1.4450    -0.8340 ns         1 R5V      -0.562900
      8 CA           3.8450     2.6410    -1.5250 c3         1 R5V       0.107000
      9 C            3.8950     3.7950    -0.5560 c          1 R5V       0.661100
     10 O            3.5570     3.6330     0.5970 o          1 R5V      -0.559100
     11 NAK          4.3160     5.0060    -0.9710 ns         1 R5V      -0.468400
     12 OAL          4.3640     6.0890    -0.0610 oh         1 R5V      -0.360100
     13 CAM          5.2250     2.3800    -2.0680 ca         1 R5V      -0.125300
     14 CAW          6.1370     1.6590    -1.3180 ca         1 R5V      -0.098500
     15 CAV          7.4030     1.4180    -1.8130 ca         1 R5V      -0.140000
     16 CAN          5.5780     2.8570    -3.3170 ca         1 R5V      -0.098500
     17 CAO          6.8420     2.6190    -3.8170 ca         1 R5V      -0.140000
     18 CAP          7.7610     1.9010    -3.0640 ca         1 R5V       0.053800
     19 NAQ          9.0470     1.6580    -3.5700 na         1 R5V       0.144300
     20 NAU         10.0660     0.9470    -2.9230 nc         1 R5V      -0.506800
     21 CAT         11.1140     0.9320    -3.7060 cd         1 R5V       0.344200
     22 CAS         10.7980     1.6320    -4.8760 cd         1 R5V      -0.340300
     23 CAR          9.5190     2.0640    -4.7690 cc         1 R5V      -0.108300
     24 H1          -0.3610    -0.8870     0.5060 hc         1 R5V       0.042811
     25 H2          -0.3610     0.0050    -1.0210 hc         1 R5V       0.042811
     26 H3          -0.3610     0.8820     0.5150 hc         1 R5V       0.042811
     27 H4           3.0940    -0.2540     1.4510 hc         1 R5V       0.042811
     28 H5           1.9030     0.9840     1.8730 hc         1 R5V       0.042811
     29 H6           1.4880    -0.7300     2.0200 hc         1 R5V       0.042811
     30 H7           3.0870    -1.4000    -0.4870 hc         1 R5V       0.042811
     31 H8           1.9270    -1.1190    -1.7920 hc         1 R5V       0.042811
     32 H9           1.4700    -2.1110    -0.4000 hc         1 R5V       0.042811
     33 H10          4.0070     0.7750    -0.4740 hn         1 R5V       0.325500
     34 H11          3.1760     2.8850    -2.3420 h1         1 R5V       0.098700
     35 H12          4.5590     5.1490    -1.9310 hn         1 R5V       0.318500
     36 H13          4.4390     6.8990    -0.5390 ho         1 R5V       0.397000
     37 H14          5.8570     1.2830    -0.3410 ha         1 R5V       0.140500
     38 H15          8.1180     0.8560    -1.2240 ha         1 R5V       0.153000
     39 H16          4.8600     3.4180    -3.9050 ha         1 R5V       0.140500
     40 H17          7.1180     2.9950    -4.7950 ha         1 R5V       0.153000
     41 H18         12.0640     0.4610    -3.4850 h4         1 R5V       0.053100
     42 H19         11.4570     1.7940    -5.7190 ha         1 R5V       0.160000
     43 H20          8.9750     2.6370    -5.5100 h4         1 R5V       0.173000
@<TRIPOS>BOND
     1     4     2 1
     2    12    11 1
     3     1     2 1
     4     2     3 1
     5     2     5 1
     6    11     9 1
     7    10     9 2
     8     5     7 1
     9     5     6 2
    10     9     8 1
    11     7     8 1
    12     8    13 1
    13    13    16 ar
    14    13    14 ar
    15    16    17 ar
    16    14    15 ar
    17    17    18 ar
    18    15    18 ar
    19    18    19 1
    20    19    20 1
    21    19    23 1
    22    20    21 2
    23    23    22 2
    24    21    22 1
    25     1    24 1
    26     1    25 1
    27     1    26 1
    28     3    27 1
    29     3    28 1
    30     3    29 1
    31     4    30 1
    32     4    31 1
    33     4    32 1
    34     7    33 1
    35     8    34 1
    36    11    35 1
    37    12    36 1
    38    14    37 1
    39    15    38 1
    40    16    39 1
    41    17    40 1
    42    21    41 1
    43    22    42 1
    44    23    43 1
@<TRIPOS>SUBSTRUCTURE
     1 R5V         1 TEMP              0 ****  ****    0 ROOT
