@<TRIPOS>MOLECULE
R5X
   43    42     1     0     0
SMALL
bcc


@<TRIPOS>ATOM
      1 C10         0.7000    0.6250   -0.1420 c3        1 R5X     -0.126000
      2 C21         4.2160   -2.6570   10.4540 c1        1 R5X     -0.243000
      3 C22         5.0100   -1.9240   10.9790 c1        1 R5X     -0.060000
      4 C24         5.0310   -6.6000    9.0210 c1        1 R5X      0.194000
      5 C01         2.2240    0.2780    4.4740 c2        1 R5X     -0.165000
      6 C02         2.1460    0.0900    5.9010 c2        1 R5X     -0.099000
      7 C03         1.2380   -0.6400    6.5620 c2        1 R5X     -0.182000
      8 C04        -1.2910   -0.2410    4.2530 c1        1 R5X     -0.144000
      9 C05        -0.1490   -0.0360    3.9570 c1        1 R5X     -0.132000
     10 C06         1.1930    0.2160    3.5850 c2        1 R5X      0.156000
     11 N07         1.4410    0.4290    2.1940 n3        1 R5X     -0.164000
     12 N08         3.1520    1.0750   -0.9200 n1        1 R5X     -0.050000
     13 C09         2.0580    0.8750   -0.5770 c1        1 R5X     -0.173000
     14 C11         0.4660    0.4070    1.3090 c1        1 R5X     -0.077000
     15 C12         1.2560   -0.8030    8.0600 c3        1 R5X      0.033000
     16 N13         2.3090   -1.6800    8.5060 n         1 R5X     -0.355000
     17 C14         1.3790    0.6110    8.6770 c2        1 R5X      0.218000
     18 O15         2.4500    1.0620    9.1130 o         1 R5X     -0.333000
     19 N16         0.1610    1.3350    8.8280 n         1 R5X     -0.185000
     20 O17         0.3060    2.6530    8.9820 oh        1 R5X     -0.238000
     21 C18         2.0520   -2.7850    9.2990 c2        1 R5X      0.307000
     22 C19         3.2620   -3.5440    9.8600 c3        1 R5X      0.014000
     23 O20         0.8930   -3.1910    9.5040 o         1 R5X     -0.359000
     24 C23         4.8990   -5.3180    9.2680 c2        1 R5X     -0.493000
     25 C25         3.8650   -4.3980    8.7420 c3        1 R5X     -0.063000
     26 H1          0.3000   -0.2900   -0.6690 hc        1 R5X      0.155000
     27 H2          2.8580   -4.2320   10.6650 hc        1 R5X      0.150000
     28 H3          5.6430   -4.8340    9.9400 ha        1 R5X      0.203000
     29 H4          2.9500    0.6030    6.4670 ha        1 R5X      0.140000
     30 H5          3.2450    0.5110    4.1140 ha        1 R5X      0.140000
     31 H6          0.4370   -1.1960    6.0490 ha        1 R5X      0.151000
     32 H7         -2.3030   -0.4260    4.5140 ha        1 R5X      0.231000
     33 H8          2.4080    0.5940    1.9710 hn        1 R5X      0.185000
     34 H9          0.0450    1.4960   -0.4420 hc        1 R5X      0.155000
     35 H10         0.2680   -1.2600    8.3880 h1        1 R5X      0.158000
     36 H11         3.2290   -1.2990    8.5040 hn        1 R5X      0.240000
     37 H12        -0.4840    1.1800    8.0610 hn        1 R5X      0.219000
     38 H13         0.6070    2.7810    9.9040 ho        1 R5X      0.234000
     39 H14         4.3300   -3.7320    7.9660 hc        1 R5X      0.100500
     40 H15         3.0360   -4.9740    8.2500 hc        1 R5X      0.100500
     41 H16         6.2040   -0.3650   11.0150 hn        1 R5X      0.194000
     42 H17         5.7700   -0.9550   12.5080 hn        1 R5X      0.194000
     43 N26         5.9750   -1.1800   11.5520 n3        1 R5X     -0.229000
@<TRIPOS>BOND
     1    1   13 1   
     2    1   14 1   
     3    1   26 1   
     4    1   34 1   
     5    2    3 1   
     6    2   22 1   
     7    3   43 1   
     8    4   24 1   
     9    5    6 1   
    10    5   10 1   
    11    5   30 1   
    12    6    7 1   
    13    6   29 1   
    14    7   15 1   
    15    7   31 1   
    16    8    9 1   
    17    8   32 1   
    18    9   10 1   
    19   10   11 1   
    20   11   14 1   
    21   11   33 1   
    22   12   13 1   
    23   15   16 1   
    24   15   17 1   
    25   15   35 1   
    26   16   21 1   
    27   16   36 1   
    28   17   18 1   
    29   17   19 1   
    30   19   20 1   
    31   19   37 1   
    32   20   38 1   
    33   21   22 1   
    34   21   23 1   
    35   22   25 1   
    36   22   27 1   
    37   24   25 1   
    38   24   28 1   
    39   25   39 1   
    40   25   40 1   
    41   41   43 1   
    42   42   43 1   
@<TRIPOS>SUBSTRUCTURE
     1 R5X         1 TEMP              0 ****  ****    0 ROOT
