@<TRIPOS>MOLECULE
molecule
   43    45     1     0     0
SMALL
bcc


@<TRIPOS>ATOM
      1 C10          0.0000     0.0000     0.0000 cc         1 R5X      -0.337300
      2 C21          3.6660    -3.5030    10.7510 ca         1 R5X      -0.146000
      3 C22          4.6990    -4.3760    11.0600 ca         1 R5X       0.178600
      4 C24          5.6920    -3.9730     8.9090 ca         1 R5X      -0.108000
      5 C01          2.1630    -0.0000     4.0340 ca         1 R5X      -0.145000
      6 C02          2.2580     0.0050     5.4120 ca         1 R5X      -0.095500
      7 C03          1.1120     0.0150     6.1850 ca         1 R5X      -0.129300
      8 C04         -0.1330     0.0160     5.5830 ca         1 R5X      -0.095500
      9 C05         -0.2350     0.0100     4.2050 ca         1 R5X      -0.145000
     10 C06          0.9150     0.0020     3.4260 ca         1 R5X       0.063800
     11 N07          0.6820     0.0030     2.0760 na         1 R5X       0.145300
     12 N08          1.8090     0.0000     1.2430 nc         1 R5X      -0.527800
     13 C09          1.3990     0.0000     0.0000 cd         1 R5X       0.348200
     14 C11         -0.4170     0.0050     1.2880 cd         1 R5X      -0.087300
     15 C12          1.2190     0.0210     7.6890 c3         1 R5X       0.105000
     16 N13          2.3060    -0.8690     8.1050 ns         1 R5X      -0.549900
     17 C14          1.5060     1.4220     8.1660 c          1 R5X       0.657100
     18 O15          2.5190     1.6530     8.7910 o          1 R5X      -0.558100
     19 N16          0.6380     2.4160     7.8980 ns         1 R5X      -0.467400
     20 O17          0.9070     3.7320     8.3460 oh         1 R5X      -0.359100
     21 C18          2.2920    -1.4230     9.3330 c          1 R5X       0.656700
     22 C19          3.6480    -2.8620     9.5120 ca         1 R5X      -0.075600
     23 O20          1.3760    -1.1840    10.0960 o          1 R5X      -0.571100
     24 C23          5.7100    -4.6090    10.1360 ca         1 R5X      -0.163000
     25 C25          4.6720    -3.0990     8.5940 ca         1 R5X      -0.147000
     26 H1          -0.6370     0.0000    -0.8760 ha         1 R5X       0.162000
     27 H2           2.8760    -3.3200    11.4700 ha         1 R5X       0.153000
     28 H3           6.4850    -4.1570     8.1930 ha         1 R5X       0.134000
     29 H4           3.0610    -0.0070     3.4280 ha         1 R5X       0.153000
     30 H5           3.2320     0.0040     5.8870 ha         1 R5X       0.139500
     31 H6          -1.0290     0.0230     6.1910 ha         1 R5X       0.139500
     32 H7          -1.2100     0.0110     3.7340 ha         1 R5X       0.153000
     33 H8           2.0340    -0.0030    -0.8780 h4         1 R5X       0.051100
     34 H9          -1.4460     0.0060     1.6260 h4         1 R5X       0.175000
     35 H10          0.2860    -0.3230     8.1190 h1         1 R5X       0.098700
     36 H11          3.0720    -1.0470     7.4850 hn         1 R5X       0.330500
     37 H12         -0.2180     2.2160     7.4180 hn         1 R5X       0.318500
     38 H13          0.1180     4.2470     8.3000 ho         1 R5X       0.397000
     39 H14          6.5150    -5.2930    10.3780 ha         1 R5X       0.136000
     40 H15          4.6610    -2.6020     7.6320 ha         1 R5X       0.123000
     41 H16          5.4680    -4.8440    12.9410 hn         1 R5X       0.429800
     42 H17          3.9880    -5.6550    12.5460 hn         1 R5X       0.429800
     43 N26          4.7210    -5.0200    12.2990 nv         1 R5X      -0.972200
@<TRIPOS>BOND
     1    43     3 1
     2    20    19 1
     3     3     2 ar
     4     3    24 ar
     5     2    22 ar
     6    18    17 2
     7    19    17 1
     8    24     4 ar
     9    17    15 1
    10    22    21 1
    11    22    25 ar
    12    16    21 1
    13    16    15 1
    14    21    23 2
    15    15     7 1
    16     4    25 ar
    17     7     8 ar
    18     7     6 ar
    19     8     9 ar
    20     6     5 ar
    21     9    10 ar
    22     5    10 ar
    23    10    11 1
    24    11    12 1
    25    11    14 1
    26    12    13 2
    27    14     1 2
    28    13     1 1
    29     1    26 1
    30     2    27 1
    31     4    28 1
    32     5    29 1
    33     6    30 1
    34     8    31 1
    35     9    32 1
    36    13    33 1
    37    14    34 1
    38    15    35 1
    39    16    36 1
    40    19    37 1
    41    20    38 1
    42    24    39 1
    43    25    40 1
    44    43    41 1
    45    43    42 1
@<TRIPOS>SUBSTRUCTURE
     1 R5X         1 TEMP              0 ****  ****    0 ROOT
