@<TRIPOS>MOLECULE
R64
   55    58     1     0     0
SMALL
bcc


@<TRIPOS>ATOM
      1 O1          0.0350    0.3470   -0.1030 os        1 R64     -0.145200
      2 C2          1.4210    0.4370    0.1530 cc        1 R64     -0.041100
      3 C3          1.6830    0.5760    1.5050 cd        1 R64     -0.031400
      4 C4          0.3940    0.5590    2.1730 ca        1 R64     -0.136800
      5 C5         -0.0680    0.6570    3.4950 ca        1 R64      0.155100
      6 C6         -1.4400    0.6170    3.7510 ca        1 R64     -0.221000
      7 C7         -2.3610    0.4770    2.7000 ca        1 R64     -0.074000
      8 C8         -1.9570    0.3780    1.3740 ca        1 R64     -0.132000
      9 C9         -0.5830    0.4230    1.1380 ca        1 R64      0.109100
     10 C10         2.3210    0.3900   -1.0020 c         1 R64      0.554800
     11 O30         3.3570    1.0680   -1.0280 o         1 R64     -0.533100
     12 C31         1.9590   -0.5160   -2.1050 cc        1 R64      0.290000
     13 N32         2.5510   -0.4440   -3.3880 na        1 R64     -0.146900
     14 C30         3.5470    0.4900   -3.8100 c3        1 R64      0.013600
     15 C33         1.9890   -1.4580   -4.1440 cc        1 R64     -0.222600
     16 C34         1.0720   -2.1300   -3.2960 cd        1 R64      0.285200
     17 N35         1.0600   -1.5450   -2.0490 nd        1 R64     -0.605000
     18 C11         2.9880    0.7090    2.1540 c3        1 R64     -0.045900
     19 O12         0.9020    0.8350    4.4720 os        1 R64     -0.325900
     20 C13         0.4890    0.5140    5.8010 c3        1 R64      0.137400
     21 C14         1.7890    0.3980    6.5910 c3        1 R64     -0.125400
     22 C15         1.4590    0.1820    8.0600 c3        1 R64      0.103800
     23 N16         2.6870    0.0610    8.9000 n4        1 R64     -0.768000
     24 C17         2.3600   -0.1400   10.3540 c3        1 R64      0.184100
     25 C18         3.5950   -0.2910   11.1620 ca        1 R64     -0.323600
     26 C19         4.1390    0.7930   11.8690 ca        1 R64     -0.055000
     27 C20         5.2730    0.5840   12.6500 ca        1 R64     -0.233300
     28 C21         5.8300   -0.7110   12.6980 ca        1 R64      0.452200
     29 N22         5.3180   -1.7620   12.0270 nb        1 R64     -0.638000
     30 C23         4.2200   -1.5510   11.2810 ca        1 R64      0.432200
     31 HC6        -1.8200    0.7040    4.7770 ha        1 R64      0.131000
     32 HC7        -3.4360    0.4490    2.9400 ha        1 R64      0.147000
     33 HC8        -2.6720    0.2670    0.5480 ha        1 R64      0.169000
     34 H301        3.6910    0.4140   -4.9190 h1        1 R64      0.068700
     35 H302        4.5170    0.2720   -3.2840 h1        1 R64      0.068700
     36 H303        3.2270    1.5320   -3.5380 h1        1 R64      0.068700
     37 HC33        2.2550   -1.6330   -5.1860 h4        1 R64      0.188000
     38 HC34        0.4420   -2.9860   -3.5380 h4        1 R64      0.052100
     39 H111        3.3550   -0.2950    2.4900 hc        1 R64      0.057367
     40 H112        3.7390    1.1420    1.4450 hc        1 R64      0.057367
     41 H113        2.9060    1.3710    3.0520 hc        1 R64      0.057367
     42 H131       -0.1510    1.3460    6.1980 h1        1 R64      0.054200
     43 H132       -0.0830   -0.4500    5.8190 h1        1 R64      0.054200
     44 H141        2.3890   -0.4560    6.1790 hc        1 R64      0.084700
     45 H142        2.3860    1.3380    6.4430 hc        1 R64      0.084700
     46 H151        0.8570   -0.7640    8.1880 hx        1 R64      0.106700
     47 H152        0.8540    1.0480    8.4550 hx        1 R64      0.106700
     48 HN16        3.2580    0.9080    8.7950 hn        1 R64      0.451800
     49 H171        1.7580    0.7520   10.6940 hx        1 R64      0.109700
     50 H172        1.7150   -1.0630   10.4310 hx        1 R64      0.109700
     51 HC19        3.6710    1.7890   11.8210 ha        1 R64      0.149000
     52 HC20        5.7260    1.4050   13.2250 ha        1 R64      0.175000
     53 HC21        6.7310   -0.9220   13.3080 h4        1 R64      0.056100
     54 HC23        3.8170   -2.4430   10.7660 h4        1 R64      0.029100
     55 H162        3.2510   -0.7320    8.5700 hn        1 R64      0.451800
@<TRIPOS>BOND
     1    1    2 1
     2    1    9 1
     3    2    3 2
     4    2   10 1
     5    3    4 1
     6    3   18 1
     7    4    5 ar
     8    4    9 ar
     9    5    6 ar
    10    5   19 1
    11    6    7 ar
    12    6   31 1
    13    7    8 ar
    14    7   32 1
    15    8    9 ar
    16    8   33 1
    17   10   11 2
    18   10   12 1
    19   12   13 1
    20   12   17 2
    21   13   14 1
    22   13   15 1
    23   14   34 1
    24   14   35 1
    25   14   36 1
    26   15   16 2
    27   15   37 1
    28   16   17 1
    29   16   38 1
    30   18   39 1
    31   18   40 1
    32   18   41 1
    33   19   20 1
    34   20   21 1
    35   20   42 1
    36   20   43 1
    37   21   22 1
    38   21   44 1
    39   21   45 1
    40   22   23 1
    41   22   46 1
    42   22   47 1
    43   23   24 1
    44   23   48 1
    45   23   55 1
    46   24   25 1
    47   24   49 1
    48   24   50 1
    49   25   26 ar
    50   25   30 ar
    51   26   27 ar
    52   26   51 1
    53   27   28 ar
    54   27   52 1
    55   28   29 ar
    56   28   53 1
    57   29   30 ar
    58   30   54 1
@<TRIPOS>SUBSTRUCTURE
     1 R64         1 TEMP              0 ****  ****    0 ROOT
