@<TRIPOS>MOLECULE
molecule
   81    85     1     0     0
SMALL
bcc


@<TRIPOS>ATOM
      1 O22          0.0000     0.0000     0.0000 o          1 R68      -0.601100
      2 C21          1.2150     0.0000     0.0000 c          1 R68       0.667700
      3 C14          1.9560     0.0000     1.2830 ca         1 R68      -0.113600
      4 C13          1.2770     0.0020     2.5050 ca         1 R68      -0.216300
      5 C12          2.0080     0.0020     3.6780 ca         1 R68       0.414700
      6 N11          3.3260     0.0010     3.6530 nb         1 R68      -0.677000
      7 C16          4.0050     0.0000     2.5240 ca         1 R68       0.414700
      8 C15          3.3540    -0.0050     1.3050 ca         1 R68      -0.216300
      9 N23          1.8880    -0.0010    -1.1680 ns         1 R68      -0.582900
     10 C31          1.1550    -0.0020    -2.4360 c3         1 R68       0.103700
     11 C32          0.8010    -1.4540    -2.7940 c3         1 R68       0.136800
     12 N33          0.3870    -1.6450    -4.1980 n7         1 R68      -0.804200
     13 C34         -0.4770    -0.5530    -4.5780 c3         1 R68       0.139800
     14 C35          0.3900     0.4640    -5.3300 c3         1 R68      -0.083400
     15 C36          1.0380     1.4410    -4.4640 c3         1 R68      -0.086400
     16 C37          1.9870     0.7130    -3.4680 c3         1 R68       0.108700
     17 N41          2.8520     1.6950    -2.8080 ns         1 R68      -0.585900
     18 C42          3.9970     2.0890    -3.4000 c          1 R68       0.667700
     19 O43          4.3120     1.6310    -4.4800 o          1 R68      -0.598100
     20 C51          4.8700     3.0810    -2.7330 ca         1 R68      -0.124600
     21 C52          6.0560     3.4900    -3.3450 ca         1 R68      -0.105000
     22 C53          6.8690     4.4130    -2.7250 ca         1 R68      -0.084000
     23 C56          4.5070     3.6080    -1.4930 ca         1 R68      -0.105000
     24 C55          5.3240     4.5270    -0.8690 ca         1 R68      -0.084000
     25 C54          6.5070     4.9400    -1.4840 ca         1 R68      -0.142600
     26 C61          7.3800     5.9310    -0.8180 c          1 R68       0.608300
     27 O62          8.3630     6.3590    -1.3910 o          1 R68      -0.501100
     28 C71          7.0590     6.4020     0.5400 ca         1 R68      -0.222600
     29 C72          6.2680     7.5470     0.7230 ca         1 R68       0.166100
     30 O82          5.7980     8.2280    -0.3520 oh         1 R68      -0.508100
     31 C73          5.9710     7.9790     2.0060 ca         1 R68      -0.203000
     32 C74          6.4510     7.2860     3.1000 ca         1 R68      -0.054000
     33 C75          7.2310     6.1540     2.9280 ca         1 R68      -0.139300
     34 C76          7.5430     5.7100     1.6590 ca         1 R68       0.180900
     35 F89          8.3040     4.6060     1.4960 f          1 R68      -0.127900
     36 C91          7.7460     5.4090     4.1320 c3         1 R68       0.216800
     37 C92          9.1630     5.8860     4.4580 c3         1 R68      -0.052000
     38 C97          9.1350     7.3770     4.7950 c3         1 R68      -0.087100
     39 C98         10.0720     5.6500     3.2500 c3         1 R68      -0.087100
     40 C93          9.6960     5.0990     5.6600 c3         1 R68      -0.071400
     41 C94          8.7170     5.2540     6.8290 c3         1 R68      -0.080400
     42 C95          7.3230     4.8100     6.3800 c3         1 R68       0.149800
     43 N96          6.8630     5.6600     5.2770 n7         1 R68      -0.803200
     44 H13          0.1940     0.0020     2.5320 ha         1 R68       0.150500
     45 H12          1.4910     0.0030     4.6300 h4         1 R68       0.030100
     46 H16          5.0880    -0.0020     2.5510 h4         1 R68       0.030100
     47 H15          3.9190    -0.0060     0.3800 ha         1 R68       0.150500
     48 H23          2.8880    -0.0550    -1.1680 hn         1 R68       0.326500
     49 H31          0.2320     0.5490    -2.3030 h1         1 R68       0.082700
     50 H321         1.6690    -2.0750    -2.6050 h1         1 R68       0.045700
     51 H322        -0.0080    -1.7780    -2.1510 h1         1 R68       0.045700
     52 H33         -0.1100    -2.5090    -4.2850 hn         1 R68       0.358800
     53 H341        -1.2660    -0.9150    -5.2270 h1         1 R68       0.038700
     54 H342        -0.9010    -0.0930    -3.6930 h1         1 R68       0.038700
     55 H351         1.1570    -0.0750    -5.8740 hc         1 R68       0.055200
     56 H352        -0.2360     0.9940    -6.0370 hc         1 R68       0.055200
     57 H361         0.2840     1.9850    -3.9090 hc         1 R68       0.052700
     58 H362         1.6140     2.1300    -5.0700 hc         1 R68       0.052700
     59 H37          2.5920    -0.0070    -4.0060 h1         1 R68       0.102700
     60 H41          2.5640     2.1160    -1.9470 hn         1 R68       0.319500
     61 H52          6.3370     3.0810    -4.3090 ha         1 R68       0.145500
     62 H53          7.7880     4.7320    -3.2020 ha         1 R68       0.151500
     63 H56          3.5890     3.2880    -1.0160 ha         1 R68       0.145500
     64 H55          5.0420     4.9360     0.0940 ha         1 R68       0.151500
     65 H82          6.1030     9.1200    -0.3180 ho         1 R68       0.433000
     66 H73          5.3620     8.8630     2.1510 ha         1 R68       0.146000
     67 H74          6.2130     7.6280     4.1000 ha         1 R68       0.165000
     68 H91          7.7660     4.3460     3.9220 h1         1 R68       0.040700
     69 H971         9.1190     7.9540     3.8780 hc         1 R68       0.040700
     70 H972         8.2490     7.5990     5.3770 hc         1 R68       0.040700
     71 H973        10.0180     7.6340     5.3680 hc         1 R68       0.040700
     72 H981        11.1020     5.8260     3.5330 hc         1 R68       0.040700
     73 H982         9.9600     4.6280     2.9080 hc         1 R68       0.040700
     74 H983         9.7960     6.3300     2.4520 hc         1 R68       0.040700
     75 H931        10.6650     5.4890     5.9460 hc         1 R68       0.045200
     76 H932         9.7830     4.0520     5.3970 hc         1 R68       0.045200
     77 H941         9.0430     4.6360     7.6560 hc         1 R68       0.050200
     78 H942         8.6830     6.2920     7.1360 hc         1 R68       0.050200
     79 H951         7.3650     3.7800     6.0460 h1         1 R68       0.034700
     80 H952         6.6340     4.8970     7.2110 h1         1 R68       0.034700
     81 H96          5.9240     5.4120     5.0340 hn         1 R68       0.353800
@<TRIPOS>BOND
     1     1     2 2
     2     2     3 1
     3     2     9 1
     4     3     4 ar
     5     3     8 ar
     6     4     5 ar
     7     4    44 1
     8     5     6 ar
     9     5    45 1
    10     6     7 ar
    11     7     8 ar
    12     7    46 1
    13     8    47 1
    14     9    10 1
    15     9    48 1
    16    10    11 1
    17    10    16 1
    18    10    49 1
    19    11    12 1
    20    11    50 1
    21    11    51 1
    22    12    13 1
    23    12    52 1
    24    13    14 1
    25    13    53 1
    26    13    54 1
    27    14    15 1
    28    14    55 1
    29    14    56 1
    30    15    16 1
    31    15    57 1
    32    15    58 1
    33    16    17 1
    34    16    59 1
    35    17    18 1
    36    17    60 1
    37    18    19 2
    38    18    20 1
    39    20    21 ar
    40    20    23 ar
    41    21    22 ar
    42    21    61 1
    43    22    25 ar
    44    22    62 1
    45    23    24 ar
    46    23    63 1
    47    24    25 ar
    48    24    64 1
    49    25    26 1
    50    26    27 2
    51    26    28 1
    52    28    29 ar
    53    28    34 ar
    54    29    30 1
    55    29    31 ar
    56    30    65 1
    57    31    32 ar
    58    31    66 1
    59    32    33 ar
    60    32    67 1
    61    33    34 ar
    62    33    36 1
    63    34    35 1
    64    36    37 1
    65    36    43 1
    66    36    68 1
    67    37    38 1
    68    37    39 1
    69    37    40 1
    70    38    69 1
    71    38    70 1
    72    38    71 1
    73    39    72 1
    74    39    73 1
    75    39    74 1
    76    40    41 1
    77    40    75 1
    78    40    76 1
    79    41    42 1
    80    41    77 1
    81    41    78 1
    82    42    43 1
    83    42    79 1
    84    42    80 1
    85    43    81 1
@<TRIPOS>SUBSTRUCTURE
     1 R68         1 TEMP              0 ****  ****    0 ROOT
