@<TRIPOS>MOLECULE
molecule
   68    71     1     0     0
SMALL
bcc


@<TRIPOS>ATOM
      1 O22          0.0000     0.0000     0.0000 o          1 R69      -0.601100
      2 C21          1.2150     0.0000     0.0000 c          1 R69       0.667700
      3 C14          1.9560     0.0000     1.2820 ca         1 R69      -0.113600
      4 C13          1.2780     0.0000     2.5050 ca         1 R69      -0.216300
      5 C12          2.0080    -0.0000     3.6770 ca         1 R69       0.414700
      6 N11          3.3270    -0.0000     3.6530 nb         1 R69      -0.675000
      7 C16          4.0050    -0.0000     2.5230 ca         1 R69       0.414700
      8 C15          3.3550    -0.0070     1.3040 ca         1 R69      -0.216300
      9 N23          1.8890    -0.0000    -1.1680 ns         1 R69      -0.582900
     10 C31          1.1560    -0.0010    -2.4360 c3         1 R69       0.103700
     11 C32          0.8010    -1.4530    -2.7940 c3         1 R69       0.136800
     12 N33          0.3870    -1.6430    -4.1990 n7         1 R69      -0.804200
     13 C34         -0.4770    -0.5510    -4.5780 c3         1 R69       0.139800
     14 C35          0.3910     0.4640    -5.3300 c3         1 R69      -0.083400
     15 C36          1.0390     1.4410    -4.4640 c3         1 R69      -0.085400
     16 C37          1.9870     0.7140    -3.4680 c3         1 R69       0.108700
     17 N41          2.8520     1.6950    -2.8090 ns         1 R69      -0.586900
     18 C42          3.9980     2.0900    -3.4000 c          1 R69       0.667700
     19 O43          4.3130     1.6310    -4.4800 o          1 R69      -0.600100
     20 C51          4.8720     3.0810    -2.7330 ca         1 R69      -0.125600
     21 C52          6.0570     3.4900    -3.3450 ca         1 R69      -0.107000
     22 C53          6.8700     4.4130    -2.7240 ca         1 R69      -0.083500
     23 C56          4.5090     3.6080    -1.4920 ca         1 R69      -0.107000
     24 C55          5.3240     4.5260    -0.8680 ca         1 R69      -0.083500
     25 C54          6.5090     4.9400    -1.4830 ca         1 R69      -0.142600
     26 C61          7.3820     5.9300    -0.8170 c          1 R69       0.604300
     27 O62          8.4610     6.2130    -1.3000 o          1 R69      -0.512100
     28 C71          6.9430     6.5760     0.4330 ca         1 R69      -0.134600
     29 C72          5.9780     7.5930     0.4020 ca         1 R69       0.084100
     30 O92          5.4440     7.9870    -0.7820 oh         1 R69      -0.511100
     31 C73          5.5710     8.1960     1.5820 ca         1 R69      -0.144000
     32 C74          6.1130     7.7960     2.7870 ca         1 R69      -0.169000
     33 C76          7.4920     6.1820     1.6580 ca         1 R69      -0.157000
     34 C75          7.0710     6.7880     2.8280 ca         1 R69       0.189600
     35 N95          7.6140     6.3910     4.0550 nh         1 R69      -0.741000
     36 C98          7.1740     7.0360     5.2940 c3         1 R69       0.231100
     37 C99          8.6230     5.3290     4.1000 c3         1 R69       0.231100
     38 H13          0.1950     0.0000     2.5320 ha         1 R69       0.150500
     39 H12          1.4910     0.0000     4.6290 h4         1 R69       0.029600
     40 H16          5.0880    -0.0030     2.5500 h4         1 R69       0.029600
     41 H15          3.9190    -0.0070     0.3800 ha         1 R69       0.150500
     42 H23          2.8880    -0.0540    -1.1680 hn         1 R69       0.325500
     43 H31          0.2330     0.5510    -2.3030 h1         1 R69       0.082700
     44 H321        -0.0080    -1.7780    -2.1510 h1         1 R69       0.045700
     45 H322         1.6690    -2.0750    -2.6060 h1         1 R69       0.045700
     46 H33         -0.1100    -2.5080    -4.2860 hn         1 R69       0.357800
     47 H341        -1.2660    -0.9130    -5.2260 h1         1 R69       0.038700
     48 H342        -0.9000    -0.0910    -3.6930 h1         1 R69       0.038700
     49 H351         1.1570    -0.0740    -5.8750 hc         1 R69       0.055200
     50 H352        -0.2360     0.9950    -6.0380 hc         1 R69       0.055200
     51 H361         0.2840     1.9850    -3.9090 hc         1 R69       0.052700
     52 H362         1.6150     2.1300    -5.0700 hc         1 R69       0.052700
     53 H37          2.5920    -0.0070    -4.0060 h1         1 R69       0.101700
     54 H41          2.5720     2.1040    -1.9390 hn         1 R69       0.319500
     55 H52          6.3370     3.0810    -4.3080 ha         1 R69       0.144500
     56 H53          7.7900     4.7310    -3.2010 ha         1 R69       0.153000
     57 H56          3.5900     3.2880    -1.0150 ha         1 R69       0.144500
     58 H55          5.0430     4.9350     0.0950 ha         1 R69       0.153000
     59 H92          5.5270     8.9220    -0.8700 ho         1 R69       0.422000
     60 H73          4.8250     8.9810     1.5580 ha         1 R69       0.138000
     61 H74          5.7890     8.2690     3.7070 ha         1 R69       0.137000
     62 H76          8.2390     5.3970     1.6910 ha         1 R69       0.145000
     63 H981         7.6970     6.5980     6.1350 h1         1 R69       0.036533
     64 H982         7.3920     8.0960     5.2470 h1         1 R69       0.036533
     65 H983         6.1080     6.8920     5.4180 h1         1 R69       0.036533
     66 H991         8.2060     4.4170     3.6920 h1         1 R69       0.036533
     67 H992         8.9250     5.1600     5.1260 h1         1 R69       0.036533
     68 H993         9.4850     5.6250     3.5140 h1         1 R69       0.036533
@<TRIPOS>BOND
     1     1     2 2
     2     2     3 1
     3     2     9 1
     4     3     4 ar
     5     3     8 ar
     6     4     5 ar
     7     4    38 1
     8     5     6 ar
     9     5    39 1
    10     6     7 ar
    11     7     8 ar
    12     7    40 1
    13     8    41 1
    14     9    10 1
    15     9    42 1
    16    10    11 1
    17    10    16 1
    18    10    43 1
    19    11    12 1
    20    11    44 1
    21    11    45 1
    22    12    13 1
    23    12    46 1
    24    13    14 1
    25    13    47 1
    26    13    48 1
    27    14    15 1
    28    14    49 1
    29    14    50 1
    30    15    16 1
    31    15    51 1
    32    15    52 1
    33    16    17 1
    34    16    53 1
    35    17    18 1
    36    17    54 1
    37    18    19 2
    38    18    20 1
    39    20    21 ar
    40    20    23 ar
    41    21    22 ar
    42    21    55 1
    43    22    25 ar
    44    22    56 1
    45    23    24 ar
    46    23    57 1
    47    24    25 ar
    48    24    58 1
    49    25    26 1
    50    26    27 2
    51    26    28 1
    52    28    29 ar
    53    28    33 ar
    54    29    30 1
    55    29    31 ar
    56    30    59 1
    57    31    32 ar
    58    31    60 1
    59    32    34 ar
    60    32    61 1
    61    33    34 ar
    62    33    62 1
    63    34    35 1
    64    35    36 1
    65    35    37 1
    66    36    63 1
    67    36    64 1
    68    36    65 1
    69    37    66 1
    70    37    67 1
    71    37    68 1
@<TRIPOS>SUBSTRUCTURE
     1 R69         1 TEMP              0 ****  ****    0 ROOT
