@<TRIPOS>MOLECULE
R6C
   51    53     1     0     0
SMALL
bcc


@<TRIPOS>ATOM
      1 OAP          0.0000     0.0000     0.0000 oh         1 R6C      -0.596800
      2 CAQ          1.4290     0.0000     0.0000 c3         1 R6C       0.200400
      3 CAR          1.9400     0.0000     1.4420 c3         1 R6C       0.130500
      4 CAK          1.3300     1.1800     2.1990 c3         1 R6C      -0.038400
      5 CAI          1.9360     1.2540     3.6030 c3         1 R6C       0.000900
      6 NAS          1.5520    -1.2530     2.0960 nu         1 R6C      -0.470900
      7 CAT          2.3440    -2.3810     1.9560 ca         1 R6C       0.768900
      8 NAU          1.9770    -3.4980     2.5610 nb         1 R6C      -0.734000
      9 CAV          2.7080    -4.6020     2.4440 ca         1 R6C       0.305800
     10 NAW          2.6090    -5.8830     2.9240 na         1 R6C       0.205000
     11 CAZ          1.5410    -6.4090     3.7780 c3         1 R6C      -0.063000
     12 CAY          0.8400    -7.5670     3.0650 c3         1 R6C      -0.011100
     13 CBA          2.1410    -6.9090     5.0940 c3         1 R6C      -0.011100
     14 CAX          3.6870    -6.5780     2.4590 cc         1 R6C       0.221700
     15 CAN          3.8850    -4.5640     1.6780 ca         1 R6C      -0.260200
     16 NAO          4.4340    -5.8040     1.7280 nd         1 R6C      -0.456100
     17 NAL          3.4480    -2.3030     1.2240 nb         1 R6C      -0.802000
     18 CAM          4.2380    -3.3550     1.0590 ca         1 R6C       0.746600
     19 OAJ          5.3630    -3.2650     0.3090 os         1 R6C      -0.371100
     20 CAD          5.4330    -1.9200    -0.1710 c3         1 R6C       0.243700
     21 CAE          6.6680    -1.7520    -1.0170 ca         1 R6C      -0.116300
     22 CAG          6.6130    -1.9910    -2.3770 ca         1 R6C      -0.076000
     23 CAH          7.7460    -1.8360    -3.1530 ca         1 R6C      -0.105500
     24 CAF          8.9350    -1.4440    -2.5680 ca         1 R6C      -0.093000
     25 CAC          8.9910    -1.2050    -1.2080 ca         1 R6C      -0.105500
     26 CAB          7.8570    -1.3550    -0.4340 ca         1 R6C      -0.076000
     27 HAP         -0.3140     0.0110    -0.8890 ho         1 R6C       0.392000
     28 HAQ1         1.7900    -0.8840    -0.5110 h1         1 R6C      -0.003300
     29 HAQ2         1.7900     0.8840    -0.5110 h1         1 R6C      -0.003300
     30 HAR          3.0190     0.0890     1.4430 h1         1 R6C       0.057700
     31 HAK1         0.2580     1.0460     2.2750 hc         1 R6C       0.027700
     32 HAK2         1.5420     2.0990     1.6660 hc         1 R6C       0.027700
     33 HAI1         1.5380     0.4500     4.2110 hc         1 R6C       0.003700
     34 HAI2         3.0130     1.1570     3.5370 hc         1 R6C       0.003700
     35 HAI3         1.6860     2.2060     4.0550 hc         1 R6C       0.003700
     36 HAS          0.7010    -1.3010     2.6200 hn         1 R6C       0.307800
     37 HAZ          0.8230    -5.6240     3.9840 h1         1 R6C       0.063700
     38 HAY1         0.5880    -7.2680     2.0550 hc         1 R6C       0.014700
     39 HAY2        -0.0640    -7.8270     3.6020 hc         1 R6C       0.014700
     40 HAY3         1.5010    -8.4250     3.0340 hc         1 R6C       0.014700
     41 HBA1         2.7980    -6.1510     5.5030 hc         1 R6C       0.014700
     42 HBA2         2.7050    -7.8160     4.9130 hc         1 R6C       0.014700
     43 HBA3         1.3440    -7.1140     5.7990 hc         1 R6C       0.014700
     44 HAX          3.8900    -7.6220     2.6670 h5         1 R6C       0.032800
     45 HAD1         4.5540    -1.7040    -0.7680 h1         1 R6C       0.020700
     46 HAD2         5.4750    -1.2380     0.6690 h1         1 R6C       0.020700
     47 HAG          5.6810    -2.2990    -2.8360 ha         1 R6C       0.105500
     48 HAH          7.7030    -2.0240    -4.2190 ha         1 R6C       0.103000
     49 HAF          9.8240    -1.3240    -3.1760 ha         1 R6C       0.101000
     50 HAC          9.9230    -0.8950    -0.7510 ha         1 R6C       0.103000
     51 HAB          7.9000    -1.1670     0.6320 ha         1 R6C       0.105500
@<TRIPOS>BOND
     1     1     2 1   
     2     1    27 1   
     3     2     3 1   
     4     2    28 1   
     5     2    29 1   
     6     3     4 1   
     7     3     6 1   
     8     3    30 1   
     9     4     5 1   
    10     4    31 1   
    11     4    32 1   
    12     5    33 1   
    13     5    34 1   
    14     5    35 1   
    15     6     7 1   
    16     6    36 1   
    17     7     8 ar  
    18     7    17 ar  
    19     8     9 ar  
    20     9    10 1   
    21     9    15 ar  
    22    10    11 1   
    23    10    14 1   
    24    11    12 1   
    25    11    13 1   
    26    11    37 1   
    27    12    38 1   
    28    12    39 1   
    29    12    40 1   
    30    13    41 1   
    31    13    42 1   
    32    13    43 1   
    33    14    16 2   
    34    14    44 1   
    35    15    16 1   
    36    15    18 ar  
    37    17    18 ar  
    38    18    19 1   
    39    19    20 1   
    40    20    21 1   
    41    20    45 1   
    42    20    46 1   
    43    21    22 ar  
    44    21    26 ar  
    45    22    23 ar  
    46    22    47 1   
    47    23    24 ar  
    48    23    48 1   
    49    24    25 ar  
    50    24    49 1   
    51    25    26 ar  
    52    25    50 1   
    53    26    51 1   
@<TRIPOS>SUBSTRUCTURE
     1 R6C         1 TEMP              0 ****  ****    0 ROOT
