@<TRIPOS>MOLECULE
R6G
   81    84     1     0     0
SMALL
bcc


@<TRIPOS>ATOM
      1 C            0.0000     0.0000     0.0000 c3         1 R6G       0.224400
      2 O            1.4290     0.0000     0.0000 oh         1 R6G      -0.594800
      3 N          -15.4700     4.5980     6.7250 nu         1 R6G      -0.448600
      4 N1         -14.6620    -3.7680     6.9120 n7         1 R6G      -0.557200
      5 C1         -15.3570     2.3550     5.8530 ca         1 R6G      -0.303300
      6 C2         -14.6210     1.2280     5.5300 ca         1 R6G       0.407000
      7 C3         -13.2380     1.2150     5.7680 ca         1 R6G      -0.178300
      8 C4         -12.6090     2.3330     6.3120 ca         1 R6G       0.031000
      9 C5         -13.3510     3.4510     6.6250 ca         1 R6G      -0.203300
     10 C6         -14.7240     3.4650     6.4000 ca         1 R6G       0.093600
     11 C7         -12.4550    -0.0040     5.4520 cc         1 R6G       0.137000
     12 C8         -13.1780    -1.1420     5.1370 cd         1 R6G      -0.217100
     13 C9         -14.6530    -1.0600     5.0970 cd         1 R6G       0.327700
     14 O1         -15.2410     0.1550     4.9720 os         1 R6G      -0.383800
     15 C10        -15.3570    -2.1860     5.2240 c2         1 R6G      -0.252200
     16 C11        -14.6810    -3.5040     5.4680 c3         1 R6G       0.274900
     17 C12        -13.2750    -3.5370     4.9510 c2         1 R6G      -0.206400
     18 C13        -12.5480    -2.4270     4.8080 cf         1 R6G      -0.009200
     19 C14        -10.9830    -0.0020     5.4700 ca         1 R6G      -0.010000
     20 C15        -10.2670    -0.0020     4.2700 ca         1 R6G      -0.131000
     21 C16         -8.9020    -0.0010     4.2830 ca         1 R6G      -0.116000
     22 C17         -8.2040    -0.0010     5.4970 ca         1 R6G      -0.199600
     23 C18         -8.8980    -0.0010     6.7050 ca         1 R6G       0.010000
     24 C19        -10.2900     0.0040     6.7010 ca         1 R6G      -0.101600
     25 C20        -12.6620    -4.8640     4.5820 c3         1 R6G       0.067100
     26 C22        -11.0360     0.0090     7.9730 c          1 R6G       0.959200
     27 O2         -10.3700     0.0160     9.1450 o          1 R6G      -0.860800
     28 O3         -12.2510     0.0090     7.9640 o          1 R6G      -0.860800
     29 C23         -6.7270    -0.0000     5.4970 c          1 R6G       0.607700
     30 O4          -6.1180     0.0000     6.5490 o          1 R6G      -0.651100
     31 N2          -6.0530    -0.0010     4.3290 ns         1 R6G      -0.228900
     32 C24         -4.5890    -0.0000     4.3280 c3         1 R6G       0.055000
     33 C25         -4.0790    -0.0000     2.8860 c3         1 R6G      -0.043400
     34 C26         -2.5490    -0.0000     2.8860 c3         1 R6G      -0.022400
     35 C27         -2.0400    -0.0000     1.4430 c3         1 R6G      -0.026400
     36 C28         -0.5090     0.0000     1.4430 c3         1 R6G      -0.038400
     37 C30        -15.8600    -4.6530     8.8570 c3         1 R6G      -0.000100
     38 C31        -16.9150     4.6160     6.4890 c3         1 R6G       0.167800
     39 C32        -17.4870     5.9650     6.9280 c3         1 R6G      -0.005100
     40 HC1         -0.3610    -0.8850    -0.5110 h1         1 R6G      -0.017300
     41 HC2         -0.3610     0.8850    -0.5110 h1         1 R6G      -0.017300
     42 H281        -0.1480     0.8850     1.9530 hc         1 R6G       0.024700
     43 H282        -0.1480    -0.8840     1.9530 hc         1 R6G       0.024700
     44 H          -15.0150     5.4040     7.1060 hn         1 R6G       0.296800
     45 H311       -17.1110     4.4670     5.4340 h1         1 R6G       0.011200
     46 H312       -17.3840     3.8230     7.0590 h1         1 R6G       0.011200
     47 H1         -13.8940    -4.3710     7.1310 hn         1 R6G       0.256800
     48 H291       -16.7470    -3.7350     7.1280 h1         1 R6G      -0.005300
     49 H292       -16.0530    -5.3340     6.8280 h1         1 R6G      -0.005300
     50 HA         -16.4210     2.3830     5.6540 ha         1 R6G       0.116000
     51 H4         -11.5400     2.3230     6.4880 ha         1 R6G       0.124000
     52 H211       -11.6040     4.4970     7.2480 hc         1 R6G      -0.000967
     53 H212       -12.8850     5.5290     6.5980 hc         1 R6G      -0.000967
     54 H213       -13.0460     4.8330     8.2160 hc         1 R6G      -0.000967
     55 H13        -11.5330    -2.4700     4.4330 ha         1 R6G       0.107000
     56 H10        -16.4370    -2.1490     5.1470 ha         1 R6G       0.103000
     57 H201       -13.4390    -5.6150     4.5160 hc         1 R6G      -0.002300
     58 H202       -12.1610    -4.7770     3.6250 hc         1 R6G      -0.002300
     59 H203       -11.9440    -5.1530     5.3400 hc         1 R6G      -0.002300
     60 H15        -10.7970    -0.0020     3.3250 ha         1 R6G       0.097000
     61 H16         -8.3550    -0.0010     3.3480 ha         1 R6G       0.083000
     62 H18         -8.3560     0.0010     7.6430 ha         1 R6G       0.157000
     63 HB          -6.5540     0.0090     3.4620 hn         1 R6G       0.180500
     64 H241        -4.2270     0.8840     4.8390 h1         1 R6G       0.023200
     65 H242        -4.2270    -0.8850     4.8390 h1         1 R6G       0.023200
     66 H251        -4.4400     0.8840     2.3760 hc         1 R6G       0.014700
     67 H252        -4.4400    -0.8850     2.3760 hc         1 R6G       0.014700
     68 H261        -2.1880     0.8840     3.3970 hc         1 R6G       0.019200
     69 H262        -2.1870    -0.8850     3.3970 hc         1 R6G       0.019200
     70 H271        -2.4010     0.8840     0.9330 hc         1 R6G       0.012700
     71 H272        -2.4010    -0.8850     0.9330 hc         1 R6G       0.012700
     72 H301       -15.1510    -5.4470     9.0610 hc         1 R6G       0.003367
     73 H302       -16.8400    -4.9430     9.2170 hc         1 R6G       0.003367
     74 H303       -15.5430    -3.7480     9.3620 hc         1 R6G       0.003367
     75 H321       -17.2950     6.1120     7.9840 hc         1 R6G       0.002700
     76 H322       -17.0150     6.7590     6.3610 hc         1 R6G       0.002700
     77 H323       -18.5550     5.9800     6.7500 hc         1 R6G       0.002700
     78 HO1          1.7430    -0.0030    -0.8890 ho         1 R6G       0.385000
     79 H11        -15.2500    -4.2820     4.9730 h1         1 R6G      -0.010300
     80 C21        -12.6740     4.6630     7.2130 c3         1 R6G       0.079200
     81 C29        -15.9170    -4.3950     7.3500 c3         1 R6G       0.140800
@<TRIPOS>BOND
     1     1     2 1   
     2     1    36 1   
     3     1    40 1   
     4     1    41 1   
     5     2    78 1   
     6     3    10 1   
     7     3    38 1   
     8     3    44 1   
     9     4    16 1   
    10     4    47 1   
    11     4    81 1   
    12     5     6 ar  
    13     5    10 ar  
    14     5    50 1   
    15     6     7 ar  
    16     6    14 1   
    17     7     8 ar  
    18     7    11 1   
    19     8     9 ar  
    20     8    51 1   
    21     9    10 ar  
    22     9    80 1   
    23    11    12 2   
    24    11    19 1   
    25    12    13 1   
    26    12    18 1   
    27    13    14 1   
    28    13    15 2   
    29    15    16 1   
    30    15    56 1   
    31    16    17 1   
    32    16    79 1   
    33    17    18 2   
    34    17    25 1   
    35    18    55 1   
    36    19    20 ar  
    37    19    24 ar  
    38    20    21 ar  
    39    20    60 1   
    40    21    22 ar  
    41    21    61 1   
    42    22    23 ar  
    43    22    29 1   
    44    23    24 ar  
    45    23    62 1   
    46    24    26 1   
    47    25    57 1   
    48    25    58 1   
    49    25    59 1   
    50    26    27 1   
    51    26    28 1   
    52    29    30 2   
    53    29    31 1   
    54    31    32 1   
    55    31    63 1   
    56    32    33 1   
    57    32    64 1   
    58    32    65 1   
    59    33    34 1   
    60    33    66 1   
    61    33    67 1   
    62    34    35 1   
    63    34    68 1   
    64    34    69 1   
    65    35    36 1   
    66    35    70 1   
    67    35    71 1   
    68    36    42 1   
    69    36    43 1   
    70    37    72 1   
    71    37    73 1   
    72    37    74 1   
    73    37    81 1   
    74    38    39 1   
    75    38    45 1   
    76    38    46 1   
    77    39    75 1   
    78    39    76 1   
    79    39    77 1   
    80    48    81 1   
    81    49    81 1   
    82    52    80 1   
    83    53    80 1   
    84    54    80 1   
@<TRIPOS>SUBSTRUCTURE
     1 R6G         1 TEMP              0 ****  ****    0 ROOT
