@<TRIPOS>MOLECULE
R70
   48    51     1     0     0
SMALL
bcc


@<TRIPOS>ATOM
      1 N            0.0000     0.0000     0.0000 ns         1 R70      -0.173500
      2 C            4.2890     3.4600     1.2130 c3         1 R70       0.244700
      3 C1           3.9900     1.1690     1.7700 ca         1 R70       0.177100
      4 C10          1.3440     0.0000     0.0000 c          1 R70       0.625700
      5 C11          0.0040    -1.0220     4.2440 ca         1 R70       0.055600
      6 C12         -0.5570    -2.0800     3.5310 ca         1 R70      -0.181000
      7 C13         -1.1910    -3.0920     4.1950 ca         1 R70      -0.013500
      8 C14         -1.2770    -3.0660     5.5920 ca         1 R70      -0.227600
      9 C15         -0.7120    -2.0020     6.3040 ca         1 R70      -0.013500
     10 C16         -0.0790    -0.9930     5.6340 ca         1 R70      -0.181000
     11 C17         -1.9600    -4.1570     6.3100 c          1 R70       0.657300
     12 C18         -2.9510    -4.9980     5.6060 ca         1 R70      -0.175600
     13 C19         -3.2600    -6.2710     6.0910 ca         1 R70      -0.062500
     14 C2           5.3050     1.1600     2.2040 ca         1 R70      -0.212000
     15 C20         -4.1850    -7.0510     5.4300 ca         1 R70      -0.116500
     16 C21         -4.8060    -6.5760     4.2880 ca         1 R70      -0.076000
     17 C22         -4.5040    -5.3160     3.8020 ca         1 R70      -0.116500
     18 C23         -3.5850    -4.5230     4.4570 ca         1 R70      -0.062500
     19 C3           5.8570     0.0010     2.7180 ca         1 R70      -0.042000
     20 C4           5.1020    -1.1560     2.8030 ca         1 R70      -0.144000
     21 C5           3.7910    -1.1640     2.3740 ca         1 R70      -0.036000
     22 C6           3.2200     0.0010     1.8590 ca         1 R70      -0.082800
     23 C7           1.8170     0.0000     1.3990 cc         1 R70      -0.093400
     24 C8           0.6950    -0.0000     2.1860 cd         1 R70      -0.097200
     25 C9          -0.4630     0.0050     1.2630 c          1 R70       0.612700
     26 N1           0.6530     0.0030     3.5670 nu         1 R70      -0.165400
     27 O1           2.0530     0.0000    -0.9870 o          1 R70      -0.593500
     28 O2          -1.6310     0.0060     1.5910 o          1 R70      -0.601500
     29 O3          -1.7100    -4.3630     7.4820 o          1 R70      -0.569100
     30 H1          -0.5730     0.0010    -0.8200 hn         1 R70       0.203500
     31 H2           5.1500     3.2500     0.5900 h1         1 R70       0.000033
     32 H3           3.7440     4.3030     0.8030 h1         1 R70       0.000033
     33 H4           4.6190     3.6980     2.2170 h1         1 R70       0.000033
     34 H5          -0.4910    -2.0990     2.4500 ha         1 R70       0.114000
     35 H6          -1.6280    -3.9140     3.6410 ha         1 R70       0.120500
     36 H7          -0.7760    -1.9780     7.3850 ha         1 R70       0.120500
     37 H8           0.3580    -0.1690     6.1850 ha         1 R70       0.114000
     38 H9          -2.7750    -6.6440     6.9850 ha         1 R70       0.124000
     39 H10          5.9030     2.0610     2.1410 ha         1 R70       0.124000
     40 H11         -4.4260    -8.0380     5.8060 ha         1 R70       0.106000
     41 H12         -5.5300    -7.1940     3.7710 ha         1 R70       0.101000
     42 H13         -4.9950    -4.9500     2.9080 ha         1 R70       0.106000
     43 H14         -3.3500    -3.5370     4.0750 ha         1 R70       0.124000
     44 H15          6.8860    -0.0020     3.0560 ha         1 R70       0.102000
     45 H16          5.5440    -2.0600     3.2040 ha         1 R70       0.110000
     46 H17          3.2030    -2.0710     2.4440 ha         1 R70       0.110000
     47 H18          1.0510     0.7650     4.0780 hn         1 R70       0.291800
     48 O            3.4460     2.3080     1.2660 os         1 R70      -0.306900
@<TRIPOS>BOND
     1     1     4 1   
     2     1    25 1   
     3     1    30 1   
     4     2    31 1   
     5     2    32 1   
     6     2    33 1   
     7     2    48 1   
     8     3    14 ar  
     9     3    22 ar  
    10     3    48 1   
    11     4    23 1   
    12     4    27 2   
    13     5     6 ar  
    14     5    10 ar  
    15     5    26 1   
    16     6     7 ar  
    17     6    34 1   
    18     7     8 ar  
    19     7    35 1   
    20     8     9 ar  
    21     8    11 1   
    22     9    10 ar  
    23     9    36 1   
    24    10    37 1   
    25    11    12 1   
    26    11    29 2   
    27    12    13 ar  
    28    12    18 ar  
    29    13    15 ar  
    30    13    38 1   
    31    14    19 ar  
    32    14    39 1   
    33    15    16 ar  
    34    15    40 1   
    35    16    17 ar  
    36    16    41 1   
    37    17    18 ar  
    38    17    42 1   
    39    18    43 1   
    40    19    20 ar  
    41    19    44 1   
    42    20    21 ar  
    43    20    45 1   
    44    21    22 ar  
    45    21    46 1   
    46    22    23 1   
    47    23    24 2   
    48    24    25 1   
    49    24    26 1   
    50    25    28 2   
    51    26    47 1   
@<TRIPOS>SUBSTRUCTURE
     1 R70         1 TEMP              0 ****  ****    0 ROOT
