@<TRIPOS>MOLECULE
molecule
   48    51     1     0     0
SMALL
bcc


@<TRIPOS>ATOM
      1 N            0.0000     0.0000     0.0000 ns         1 R70      -0.590500
      2 C            4.2890     3.4600     1.2130 c3         1 R70       0.128700
      3 C1           3.9900     1.1690     1.7700 ca         1 R70       0.166100
      4 C10          1.3440     0.0000     0.0000 c          1 R70       0.709700
      5 C11          0.0040    -1.0220     4.2440 ca         1 R70       0.214600
      6 C12         -0.5570    -2.0800     3.5310 ca         1 R70      -0.200500
      7 C13         -1.1910    -3.0920     4.1950 ca         1 R70      -0.042000
      8 C14         -1.2770    -3.0660     5.5920 ca         1 R70      -0.216600
      9 C15         -0.7120    -2.0020     6.3040 ca         1 R70      -0.042000
     10 C16         -0.0790    -0.9930     5.6340 ca         1 R70      -0.200500
     11 C17         -1.9600    -4.1570     6.3100 c          1 R70       0.596300
     12 C18         -2.9510    -4.9980     5.6060 ca         1 R70      -0.168600
     13 C19         -3.2600    -6.2710     6.0910 ca         1 R70      -0.086500
     14 C2           5.3050     1.1600     2.2040 ca         1 R70      -0.223000
     15 C20         -4.1850    -7.0510     5.4300 ca         1 R70      -0.143000
     16 C21         -4.8060    -6.5760     4.2880 ca         1 R70      -0.104000
     17 C22         -4.5040    -5.3160     3.8020 ca         1 R70      -0.143000
     18 C23         -3.5850    -4.5230     4.4570 ca         1 R70      -0.086500
     19 C3           5.8570     0.0010     2.7180 ca         1 R70      -0.075000
     20 C4           5.1020    -1.1560     2.8030 ca         1 R70      -0.168000
     21 C5           3.7910    -1.1640     2.3740 ca         1 R70      -0.060000
     22 C6           3.2200     0.0010     1.8590 ca         1 R70      -0.079800
     23 C7           1.8170     0.0000     1.3990 cc         1 R70      -0.100400
     24 C8           0.6950    -0.0000     2.1860 cd         1 R70       0.073800
     25 C9          -0.4630     0.0050     1.2630 c          1 R70       0.688700
     26 N1           0.6530     0.0030     3.5670 nu         1 R70      -0.647400
     27 O1           2.0530     0.0000    -0.9870 o          1 R70      -0.556500
     28 O2          -1.6310     0.0060     1.5910 o          1 R70      -0.561500
     29 O3          -1.7100    -4.3630     7.4820 o          1 R70      -0.535100
     30 H1          -0.5730     0.0010    -0.8200 hn         1 R70       0.358500
     31 H2           5.1500     3.2500     0.5900 h1         1 R70       0.044367
     32 H3           3.7440     4.3030     0.8030 h1         1 R70       0.044367
     33 H4           4.6190     3.6980     2.2170 h1         1 R70       0.044367
     34 H5          -0.4910    -2.0990     2.4500 ha         1 R70       0.135500
     35 H6          -1.6280    -3.9140     3.6410 ha         1 R70       0.150000
     36 H7          -0.7760    -1.9780     7.3850 ha         1 R70       0.150000
     37 H8           0.3580    -0.1690     6.1850 ha         1 R70       0.135500
     38 H9          -2.7750    -6.6440     6.9850 ha         1 R70       0.149000
     39 H10          5.9030     2.0610     2.1410 ha         1 R70       0.140000
     40 H11         -4.4260    -8.0380     5.8060 ha         1 R70       0.134000
     41 H12         -5.5300    -7.1940     3.7710 ha         1 R70       0.131000
     42 H13         -4.9950    -4.9500     2.9080 ha         1 R70       0.134000
     43 H14         -3.3500    -3.5370     4.0750 ha         1 R70       0.149000
     44 H15          6.8860    -0.0020     3.0560 ha         1 R70       0.134000
     45 H16          5.5440    -2.0600     3.2040 ha         1 R70       0.138000
     46 H17          3.2030    -2.0710     2.4440 ha         1 R70       0.143000
     47 H18          1.0510     0.7650     4.0780 hn         1 R70       0.464800
     48 O            3.4460     2.3080     1.2660 os         1 R70      -0.325900
@<TRIPOS>BOND
     1    18    17 ar
     2    18    12 ar
     3    17    16 ar
     4    29    11 2
     5    12    11 1
     6    12    13 ar
     7    16    15 ar
     8    11     8 1
     9     7     8 ar
    10     7     6 ar
    11     8     9 ar
    12    15    13 ar
    13     6     5 ar
    14     9    10 ar
    15     5    10 ar
    16     5    26 1
    17    26    24 1
    18    20    21 ar
    19    20    19 ar
    20    24    25 1
    21    24    23 2
    22    21    22 ar
    23    28    25 2
    24    19    14 ar
    25    25     1 1
    26    22    23 1
    27    22     3 ar
    28    23     4 1
    29    14     3 ar
    30     3    48 1
    31     1     4 1
    32     4    27 2
    33    48     2 1
    34     1    30 1
    35     2    31 1
    36     2    32 1
    37     2    33 1
    38     6    34 1
    39     7    35 1
    40     9    36 1
    41    10    37 1
    42    13    38 1
    43    14    39 1
    44    15    40 1
    45    16    41 1
    46    17    42 1
    47    18    43 1
    48    19    44 1
    49    20    45 1
    50    21    46 1
    51    26    47 1
@<TRIPOS>SUBSTRUCTURE
     1 R70         1 TEMP              0 ****  ****    0 ROOT
