@<TRIPOS>MOLECULE
R77
   44    44     1     0     0
SMALL
bcc


@<TRIPOS>ATOM
      1 O6           0.0000     0.0000     0.0000 o          1 R77      -0.743500
      2 P4           1.6100     0.0000     0.0000 p5         1 R77       0.425700
      3 O5           2.1030     0.0000     1.3950 o          1 R77      -0.743500
      4 O7           2.1460    -1.3150    -0.7580 o          1 R77      -0.743500
      5 C1           2.2180     1.4880    -0.8600 c3         1 R77      -0.067600
      6 C2           1.7800     2.7350    -0.0910 c3         1 R77      -0.000700
      7 C3           3.0040     3.6010     0.2170 c3         1 R77      -0.079400
      8 C8           3.9060     2.8710     1.1780 c          1 R77       0.512100
      9 N9           5.1160     3.3800     1.4840 n          1 R77      -0.103300
     10 O10          5.5400     4.5990     0.9010 oh         1 R77      -0.469100
     11 C11          5.9940     2.6690     2.4180 c3         1 R77       0.094300
     12 O12          3.5430     1.8270     1.6760 o          1 R77      -0.419100
     13 C13          0.7890     3.5360    -0.9400 c3         1 R77      -0.015400
     14 C14         -0.4860     2.7170    -1.1420 c3         1 R77      -0.058400
     15 C15         -1.4760     3.5170    -1.9910 c3         1 R77      -0.024400
     16 C16         -2.7530     2.6980    -2.1940 c3         1 R77       0.016900
     17 C17         -3.7280     3.4860    -3.0300 ca         1 R77      -0.042300
     18 C19         -4.6360     4.3310    -2.4200 ca         1 R77      -0.099500
     19 C21         -5.5280     5.0580    -3.1870 ca         1 R77      -0.119000
     20 C22         -5.5090     4.9400    -4.5640 ca         1 R77      -0.139000
     21 C20         -4.6010     4.0970    -5.1740 ca         1 R77      -0.119000
     22 C18         -3.7100     3.3690    -4.4070 ca         1 R77      -0.099500
     23 H3           3.3000     1.4570    -0.9130 hc         1 R77      -0.002800
     24 H4           1.8080     1.5190    -1.8620 hc         1 R77      -0.002800
     25 H5           1.3050     2.4390     0.8370 hc         1 R77       0.077700
     26 H6           2.6830     4.5350     0.6610 hc         1 R77      -0.004300
     27 H7           3.5420     3.8040    -0.7010 hc         1 R77      -0.004300
     28 H8           5.8010     5.1980     1.5810 ho         1 R77       0.359000
     29 H9           6.9180     3.2220     2.5350 h1         1 R77      -0.001300
     30 H10          5.5020     2.5800     3.3780 h1         1 R77      -0.001300
     31 H11          6.2100     1.6820     2.0290 h1         1 R77      -0.001300
     32 H12          0.5470     4.4630    -0.4340 hc         1 R77      -0.030800
     33 H13          1.2340     3.7560    -1.9030 hc         1 R77      -0.030800
     34 H14         -0.9310     2.4970    -0.1790 hc         1 R77       0.077700
     35 H15         -0.2440     1.7900    -1.6480 hc         1 R77       0.077700
     36 H16         -1.0310     3.7370    -2.9540 hc         1 R77      -0.011800
     37 H17         -1.7190     4.4440    -1.4850 hc         1 R77      -0.011800
     38 H18         -3.1980     2.4780    -1.2310 hc         1 R77       0.036700
     39 H19         -2.5110     1.7710    -2.7000 hc         1 R77       0.036700
     40 H20         -4.6650     4.4050    -1.3400 ha         1 R77       0.110000
     41 H21         -6.2620     5.6940    -2.7070 ha         1 R77       0.087000
     42 H22         -6.2090     5.5080    -5.1650 ha         1 R77       0.084000
     43 H23         -4.5830     4.0090    -6.2540 ha         1 R77       0.087000
     44 H24         -3.0830     2.6790    -4.9590 ha         1 R77       0.110000
@<TRIPOS>BOND
     1     1     2 1   
     2     2     3 1   
     3     2     4 1   
     4     2     5 1   
     5     5     6 1   
     6     5    23 1   
     7     5    24 1   
     8     6     7 1   
     9     6    13 1   
    10     6    25 1   
    11     7     8 1   
    12     7    26 1   
    13     7    27 1   
    14     8     9 1   
    15     8    12 2   
    16     9    10 1   
    17     9    11 1   
    18    10    28 1   
    19    11    29 1   
    20    11    30 1   
    21    11    31 1   
    22    13    14 1   
    23    13    32 1   
    24    13    33 1   
    25    14    15 1   
    26    14    34 1   
    27    14    35 1   
    28    15    16 1   
    29    15    36 1   
    30    15    37 1   
    31    16    17 1   
    32    16    38 1   
    33    16    39 1   
    34    17    18 ar  
    35    17    22 ar  
    36    18    19 ar  
    37    18    40 1   
    38    19    20 ar  
    39    19    41 1   
    40    20    21 ar  
    41    20    42 1   
    42    21    22 ar  
    43    21    43 1   
    44    22    44 1   
@<TRIPOS>SUBSTRUCTURE
     1 R77         1 TEMP              0 ****  ****    0 ROOT
