@<TRIPOS>MOLECULE
molecule
   44    44     1     0     0
SMALL
bcc


@<TRIPOS>ATOM
      1 O6           0.0000     0.0000     0.0000 o          1 R77      -0.914167
      2 P4           1.6100     0.0000     0.0000 p5         1 R77       1.048700
      3 O5           2.1030     0.0000     1.3950 o          1 R77      -0.914167
      4 O7           2.1460    -1.3150    -0.7580 o          1 R77      -0.914167
      5 C1           2.2180     1.4880    -0.8600 c3         1 R77      -0.246600
      6 C2           1.7800     2.7350    -0.0910 c3         1 R77      -0.021700
      7 C3           3.0040     3.6010     0.2170 c3         1 R77      -0.129400
      8 C8           3.9060     2.8710     1.1780 c          1 R77       0.618100
      9 N9           5.1160     3.3800     1.4840 n          1 R77      -0.408300
     10 O10          5.5400     4.5990     0.9010 oh         1 R77      -0.411100
     11 C11          5.9940     2.6690     2.4180 c3         1 R77       0.103300
     12 O12          3.5430     1.8270     1.6760 o          1 R77      -0.406100
     13 C13          0.7890     3.5360    -0.9400 c3         1 R77      -0.066400
     14 C14         -0.4860     2.7170    -1.1420 c3         1 R77      -0.076400
     15 C15         -1.4760     3.5170    -1.9910 c3         1 R77      -0.077400
     16 C16         -2.7530     2.6980    -2.1940 c3         1 R77      -0.042100
     17 C17         -3.7280     3.4860    -3.0300 ca         1 R77      -0.044300
     18 C19         -4.6360     4.3310    -2.4200 ca         1 R77      -0.127000
     19 C21         -5.5280     5.0580    -3.1870 ca         1 R77      -0.142000
     20 C22         -5.5090     4.9400    -4.5640 ca         1 R77      -0.161000
     21 C20         -4.6010     4.0970    -5.1740 ca         1 R77      -0.142000
     22 C18         -3.7100     3.3690    -4.4070 ca         1 R77      -0.127000
     23 H3           3.3000     1.4570    -0.9130 hc         1 R77       0.020200
     24 H4           1.8080     1.5190    -1.8620 hc         1 R77       0.020200
     25 H5           1.3050     2.4390     0.8370 hc         1 R77       0.093700
     26 H6           2.6830     4.5350     0.6610 hc         1 R77       0.028700
     27 H7           3.5420     3.8040    -0.7010 hc         1 R77       0.028700
     28 H8           5.8010     5.1980     1.5810 ho         1 R77       0.365000
     29 H9           6.9180     3.2220     2.5350 h1         1 R77       0.033033
     30 H10          5.5020     2.5800     3.3780 h1         1 R77       0.033033
     31 H11          6.2100     1.6820     2.0290 h1         1 R77       0.033033
     32 H12          0.5470     4.4630    -0.4340 hc         1 R77      -0.003300
     33 H13          1.2340     3.7560    -1.9030 hc         1 R77      -0.003300
     34 H14         -0.9310     2.4970    -0.1790 hc         1 R77       0.096700
     35 H15         -0.2440     1.7900    -1.6480 hc         1 R77       0.096700
     36 H16         -1.0310     3.7370    -2.9540 hc         1 R77       0.014700
     37 H17         -1.7190     4.4440    -1.4850 hc         1 R77       0.014700
     38 H18         -3.1980     2.4780    -1.2310 hc         1 R77       0.067700
     39 H19         -2.5110     1.7710    -2.7000 hc         1 R77       0.067700
     40 H20         -4.6650     4.4050    -1.3400 ha         1 R77       0.135000
     41 H21         -6.2620     5.6940    -2.7070 ha         1 R77       0.110500
     42 H22         -6.2090     5.5080    -5.1650 ha         1 R77       0.105000
     43 H23         -4.5830     4.0090    -6.2540 ha         1 R77       0.110500
     44 H24         -3.0830     2.6790    -4.9590 ha         1 R77       0.135000
@<TRIPOS>BOND
     1    19    20 ar
     2    19    18 ar
     3    20    21 ar
     4    18    17 ar
     5    21    22 ar
     6    17    22 ar
     7    17    16 1
     8    16    15 1
     9    10     9 1
    10    11     9 1
    11    15    14 1
    12     9     8 1
    13     3     2 1
    14    14    13 1
    15     8    12 2
    16     8     7 1
    17     6     7 1
    18     6    13 1
    19     6     5 1
    20     2     4 1
    21     2     5 1
    22     2     1 1
    23     5    23 1
    24     5    24 1
    25     6    25 1
    26     7    26 1
    27     7    27 1
    28    10    28 1
    29    11    29 1
    30    11    30 1
    31    11    31 1
    32    13    32 1
    33    13    33 1
    34    14    34 1
    35    14    35 1
    36    15    36 1
    37    15    37 1
    38    16    38 1
    39    16    39 1
    40    18    40 1
    41    19    41 1
    42    20    42 1
    43    21    43 1
    44    22    44 1
@<TRIPOS>SUBSTRUCTURE
     1 R77         1 TEMP              0 ****  ****    0 ROOT
