@<TRIPOS>MOLECULE
molecule
   77    81     1     0     0
SMALL
bcc


@<TRIPOS>ATOM
      1 N1           0.0000     0.0000     0.0000 nb         1 R78      -0.792000
      2 N3           1.8840     0.0080     3.6220 nh         1 R78      -0.682300
      3 C4           1.3270     0.0000     0.0000 ca         1 R78       0.478200
      4 C5           3.1200    -0.7790     3.6040 c3         1 R78       0.113500
      5 C6           3.9810    -0.3710     2.4370 c          1 R78       0.707500
      6 C7          -2.7220     0.1190    -0.1370 ca         1 R78       0.160600
      7 C8           0.9820    -0.4530     4.6870 c3         1 R78       0.175500
      8 C13          0.1360     0.0550     6.8970 c3         1 R78      -0.092400
      9 C15         -0.4290     0.1400     4.4920 c3         1 R78      -0.069900
     10 C17         -4.5920    -0.4100    -1.5530 ca         1 R78      -0.142000
     11 C20         -2.1550     0.8750    -1.1580 ca         1 R78      -0.110000
     12 C22         -4.8390     1.3300    -6.1560 c3         1 R78       0.115700
     13 C24         -6.5240     2.6350    -7.4570 c3         1 R78       0.165800
     14 C28         -4.5380     1.8230    -8.5850 c3         1 R78       0.165800
     15 O2          -5.7730    -0.0840    -4.0580 o          1 R78      -0.618100
     16 N6          -4.1560     1.2060    -4.8650 ns         1 R78      -0.578900
     17 C29         -3.8130     1.6360    -7.2510 c3         1 R78      -0.092900
     18 N7          -5.5010     2.9270    -8.4690 n3         1 R78      -0.734600
     19 C30         -6.1170     3.2260    -9.7690 c3         1 R78       0.153100
     20 C23         -5.8580     2.4700    -6.0890 c3         1 R78      -0.092900
     21 C18         -4.0200     0.3500    -2.5790 ca         1 R78      -0.134600
     22 C16         -3.9460    -0.5230    -0.3390 ca         1 R78       0.093100
     23 O3          -4.4990    -1.2620     0.6600 os         1 R78      -0.337900
     24 C31         -5.7510    -1.8920     0.3830 c3         1 R78       0.128700
     25 C19         -2.7970     0.9910    -2.3710 ca         1 R78      -0.124000
     26 C1          -0.6820     0.0010     1.1350 ca         1 R78       0.930900
     27 N2          -0.0790     0.0030     2.3160 nb         1 R78      -0.805000
     28 C2           1.2460     0.0030     2.3960 ca         1 R78       0.666200
     29 C14         -0.9670     0.4630     5.8980 c3         1 R78      -0.092400
     30 C12          1.4390     0.0960     6.0610 c3         1 R78      -0.069900
     31 C9           3.8890    -0.5470     4.9070 c3         1 R78      -0.081400
     32 O1           5.1900    -0.3680     2.5390 o          1 R78      -0.619500
     33 N4           3.3940    -0.0080     1.2740 n          1 R78      -0.367000
     34 C11          4.2000     0.3670     0.1100 c3         1 R78       0.095300
     35 C3           1.9930     0.0000     1.2110 ca         1 R78      -0.267000
     36 H4           1.8780    -0.0010    -0.9320 h4         1 R78       0.036100
     37 H5           2.8720    -1.8300     3.5130 h1         1 R78       0.060700
     38 H8           0.9360    -1.5350     4.7100 h1         1 R78       0.043700
     39 H10          3.3440     1.5010     4.5500 hc         1 R78       0.044700
     40 H10A         3.9700     1.1860     6.1740 hc         1 R78       0.044700
     41 H10B         5.0770     1.2400     4.7960 hc         1 R78       0.044700
     42 H13          0.1880     0.7660     7.7130 hc         1 R78       0.042950
     43 H13A        -0.0430    -0.9460     7.2680 hc         1 R78       0.042950
     44 H15         -0.3710     1.0460     3.9010 hc         1 R78       0.063450
     45 H15A        -1.0720    -0.5850     4.0090 hc         1 R78       0.063450
     46 H17         -5.5410    -0.9070    -1.7110 ha         1 R78       0.164000
     47 H20         -1.2060     1.3730    -0.9980 ha         1 R78       0.166000
     48 H22         -5.3500     0.4040    -6.3900 h1         1 R78       0.078700
     49 H24A        -7.2330     3.4530    -7.4150 h1         1 R78       0.036700
     50 H28         -5.0650     0.9110    -8.8390 h1         1 R78       0.036700
     51 H28A        -3.8160     2.0560    -9.3580 h1         1 R78       0.036700
     52 HN6         -3.2700     1.6490    -4.7240 hn         1 R78       0.315500
     53 H29         -3.1160     0.8100    -7.3320 hc         1 R78       0.055200
     54 H29A        -3.2790     2.5440    -7.0000 hc         1 R78       0.055200
     55 H30         -6.6660     2.3600   -10.1160 h1         1 R78       0.032367
     56 H30A        -6.7940     4.0650    -9.6630 h1         1 R78       0.032367
     57 H30B        -5.3430     3.4750   -10.4860 h1         1 R78       0.032367
     58 H23         -5.3520     3.3900    -5.8220 hc         1 R78       0.055200
     59 H23A        -6.6120     2.2370    -5.3470 hc         1 R78       0.055200
     60 H31         -6.0770    -2.4460     1.2560 h1         1 R78       0.045367
     61 H31A        -5.6370    -2.5710    -0.4530 h1         1 R78       0.045367
     62 H31B        -6.4890    -1.1380     0.1380 h1         1 R78       0.045367
     63 H19         -2.3520     1.5800    -3.1640 ha         1 R78       0.127000
     64 H14         -1.8680    -0.1070     6.0900 hc         1 R78       0.042950
     65 H14A        -1.1670     1.5240     5.9820 hc         1 R78       0.042950
     66 H12          1.8000     1.1130     5.9650 hc         1 R78       0.063450
     67 H12A         2.1930    -0.5470     6.4980 hc         1 R78       0.063450
     68 H9           3.3270    -0.9610     5.7360 hc         1 R78       0.065200
     69 H9A          4.8550    -1.0320     4.8470 hc         1 R78       0.065200
     70 H11          3.7870     1.2610    -0.3430 h1         1 R78       0.052033
     71 H11A         5.2190     0.5590     0.4220 h1         1 R78       0.052033
     72 H11B         4.1890    -0.4410    -0.6120 h1         1 R78       0.052033
     73 C10          4.0840     0.9550     5.1220 c3         1 R78      -0.098100
     74 N5          -2.0680     0.0000     1.0870 nu         1 R78      -0.741300
     75 C21         -4.7080     0.4740    -3.8780 c          1 R78       0.677700
     76 H24         -7.0380     1.7180    -7.7180 h1         1 R78       0.036700
     77 HN5         -2.5980    -0.0570     1.9340 hn         1 R78       0.476800
@<TRIPOS>BOND
     1     1     3 ar
     2     1    26 ar
     3     2     4 1
     4     2     7 1
     5     2    28 1
     6     3    35 ar
     7     4     5 1
     8     4    31 1
     9     5    32 2
    10     5    33 1
    11     6    11 ar
    12     6    22 ar
    13     6    74 1
    14     7     9 1
    15     7    30 1
    16    73    31 1
    17     8    29 1
    18     8    30 1
    19     9    29 1
    20    10    21 ar
    21    10    22 ar
    22    11    25 ar
    23    75    15 2
    24    75    16 1
    25    75    21 1
    26    12    16 1
    27    12    17 1
    28    12    20 1
    29    13    18 1
    30    13    20 1
    31    14    17 1
    32    14    18 1
    33    18    19 1
    34    21    25 ar
    35    22    23 1
    36    23    24 1
    37    74    26 1
    38    26    27 ar
    39    27    28 ar
    40    28    35 ar
    41    33    34 1
    42    33    35 1
    43     3    36 1
    44     4    37 1
    45     7    38 1
    46    73    39 1
    47    73    40 1
    48    73    41 1
    49     8    42 1
    50     8    43 1
    51     9    44 1
    52     9    45 1
    53    10    46 1
    54    11    47 1
    55    12    48 1
    56    13    76 1
    57    13    49 1
    58    14    50 1
    59    14    51 1
    60    16    52 1
    61    17    53 1
    62    17    54 1
    63    19    55 1
    64    19    56 1
    65    19    57 1
    66    20    58 1
    67    20    59 1
    68    24    60 1
    69    24    61 1
    70    24    62 1
    71    25    63 1
    72    74    77 1
    73    29    64 1
    74    29    65 1
    75    30    66 1
    76    30    67 1
    77    31    68 1
    78    31    69 1
    79    34    70 1
    80    34    71 1
    81    34    72 1
@<TRIPOS>SUBSTRUCTURE
     1 R78         1 TEMP              0 ****  ****    0 ROOT
