@<TRIPOS>MOLECULE
molecule
   49    51     1     0     0
SMALL
bcc


@<TRIPOS>ATOM
      1 C1           0.0000     0.0000     0.0000 c3         1 R82       0.128700
      2 O2           1.4290     0.0000     0.0000 os         1 R82      -0.329900
      3 C3           2.0460     0.0000     1.2120 ca         1 R82       0.197100
      4 C4           1.2920     0.0010     2.3740 ca         1 R82      -0.323000
      5 C5           1.9240     0.0010     3.6090 ca         1 R82       0.256100
      6 O6           1.1840     0.0020     4.7500 os         1 R82      -0.316900
      7 C7          -0.2320     0.1160     4.6040 c3         1 R82       0.131700
      8 C8           3.3090     0.0010     3.6810 ca         1 R82      -0.366500
      9 C9           4.0640    -0.0000     2.5230 ca         1 R82       0.032000
     10 C10          3.4370    -0.0060     1.2870 ca         1 R82      -0.028400
     11 N11          4.2030    -0.0120     0.1110 ns         1 R82      -0.471100
     12 C12          5.3810    -0.6660     0.0780 c          1 R82       0.655100
     13 O13          5.8210    -1.1750     1.0880 o          1 R82      -0.595100
     14 C14          6.1510    -0.7680    -1.2130 c3         1 R82      -0.168100
     15 S15          4.1080     0.0000     5.2520 sy         1 R82       1.448200
     16 O16          3.4700    -1.0070     6.0260 o          1 R82      -0.622800
     17 O17          5.5050     0.0120     4.9920 o          1 R82      -0.622800
     18 N18          3.7560     1.4440     5.9810 nh         1 R82      -0.658900
     19 C19          4.4760     2.6990     5.7480 c3         1 R82       0.240500
     20 C20          5.9440     2.5510     6.1490 c3         1 R82      -0.111100
     21 C21          3.7790     3.7350     6.6470 c3         1 R82      -0.033100
     22 C22          2.6820     2.9600     7.3410 ca         1 R82      -0.137300
     23 C23          1.7340     3.3590     8.2620 ca         1 R82      -0.095000
     24 C24          0.8220     2.4470     8.7590 ca         1 R82      -0.159000
     25 C25          0.8610     1.1320     8.3330 ca         1 R82      -0.111000
     26 C26          1.8060     0.7280     7.4150 ca         1 R82      -0.149000
     27 C27          2.7270     1.6450     6.9020 ca         1 R82       0.164600
     28 H11C        -0.3610    -0.8870     0.5070 h1         1 R82       0.045700
     29 H12C        -0.3610     0.8820     0.5140 h1         1 R82       0.045700
     30 H13C        -0.3610     0.0040    -1.0210 h1         1 R82       0.045700
     31 H4           0.2120    -0.0530     2.3190 ha         1 R82       0.147000
     32 H71C        -0.4710     1.0490     4.1090 h1         1 R82       0.046033
     33 H72C        -0.6990     0.0960     5.5820 h1         1 R82       0.046033
     34 H73C        -0.6020    -0.7120     4.0120 h1         1 R82       0.046033
     35 H9           5.1450    -0.0030     2.5820 ha         1 R82       0.202000
     36 H11          3.8920     0.4990    -0.6910 hn         1 R82       0.330500
     37 H141         7.1030    -1.2500    -1.0290 hc         1 R82       0.063367
     38 H142         5.5830    -1.3510    -1.9280 hc         1 R82       0.063367
     39 H143         6.3210     0.2250    -1.6110 hc         1 R82       0.063367
     40 H19          4.3920     2.9910     4.7080 h1         1 R82       0.053700
     41 H201         6.0200     1.8910     7.0050 hc         1 R82       0.053033
     42 H202         6.5050     2.1340     5.3210 hc         1 R82       0.053033
     43 H203         6.3480     3.5230     6.4060 hc         1 R82       0.053033
     44 H211         3.3440     4.5150     6.0340 hc         1 R82       0.061200
     45 H212         4.4810     4.1120     7.3810 hc         1 R82       0.061200
     46 H23          1.7040     4.3900     8.5950 ha         1 R82       0.127000
     47 H24          0.0780     2.7620     9.4810 ha         1 R82       0.128000
     48 H25          0.1470     0.4170     8.7220 ha         1 R82       0.131000
     49 H26          1.8320    -0.3030     7.0850 ha         1 R82       0.178000
@<TRIPOS>BOND
     1     1     2 1
     2     2     3 1
     3     3     4 ar
     4     3    10 ar
     5     4     5 ar
     6     5     6 1
     7     5     8 ar
     8     6     7 1
     9     8     9 ar
    10     8    15 1
    11     9    10 ar
    12    10    11 1
    13    11    12 1
    14    12    13 2
    15    12    14 1
    16    15    16 2
    17    15    17 2
    18    15    18 1
    19    18    19 1
    20    18    27 1
    21    19    20 1
    22    19    21 1
    23    21    22 1
    24    22    23 ar
    25    22    27 ar
    26    23    24 ar
    27    24    25 ar
    28    25    26 ar
    29    26    27 ar
    30     1    28 1
    31     1    29 1
    32     1    30 1
    33     4    31 1
    34     7    32 1
    35     7    33 1
    36     7    34 1
    37     9    35 1
    38    11    36 1
    39    14    37 1
    40    14    38 1
    41    14    39 1
    42    19    40 1
    43    20    41 1
    44    20    42 1
    45    20    43 1
    46    21    44 1
    47    21    45 1
    48    23    46 1
    49    24    47 1
    50    25    48 1
    51    26    49 1
@<TRIPOS>SUBSTRUCTURE
     1 R82         1 TEMP              0 ****  ****    0 ROOT
