@<TRIPOS>MOLECULE
R83
   60    62     1     0     0
SMALL
bcc


@<TRIPOS>ATOM
      1 C1           0.0000     0.0000     0.0000 c3         1 R83       0.251700
      2 O2           1.4290     0.0000     0.0000 os         1 R83      -0.317900
      3 C3           2.0460     0.0000     1.2110 ca         1 R83       0.201100
      4 C4           1.2940    -0.0010     2.3740 ca         1 R83      -0.331000
      5 C5           1.9250    -0.0030     3.6080 ca         1 R83       0.268100
      6 O6           1.1860    -0.0040     4.7500 os         1 R83      -0.297900
      7 C7          -0.2350    -0.0030     4.6020 c3         1 R83       0.246700
      8 C8           3.3100    -0.0030     3.6800 ca         1 R83      -0.204500
      9 C9           4.0650    -0.0020     2.5230 ca         1 R83       0.057000
     10 C10          3.4370    -0.0060     1.2850 ca         1 R83      -0.187400
     11 N11          4.2030    -0.0110     0.1090 ns         1 R83      -0.020100
     12 C12          5.4590    -0.5010     0.1240 c          1 R83       0.551100
     13 O13          5.8910    -1.0300     1.1280 o          1 R83      -0.629100
     14 C14          6.3250    -0.3940    -1.1040 c3         1 R83      -0.066100
     15 S15          4.1110    -0.0050     5.2510 sy         1 R83       1.045200
     16 O16          3.4870    -1.0270     6.0170 o          1 R83      -0.582800
     17 O17          5.5070     0.0290     4.9900 o          1 R83      -0.582800
     18 N18          3.7380     1.4280     5.9920 n7         1 R83      -0.572100
     19 C19          2.3520     1.7200     6.3670 c3         1 R83       0.277100
     20 C20          2.3250     2.8780     7.3300 ca         1 R83      -0.088300
     21 C21          2.1920     2.6460     8.6860 ca         1 R83      -0.078000
     22 C22          2.1680     3.7090     9.5710 ca         1 R83      -0.104000
     23 C23          2.2770     5.0060     9.1030 ca         1 R83      -0.089000
     24 C24          2.4110     5.2440     7.7500 ca         1 R83      -0.139000
     25 C25          2.4410     4.1790     6.8580 ca         1 R83       0.016600
     26 N26          2.5800     4.4170     5.4880 nh         1 R83      -0.401000
     27 C27          1.4790     5.2450     4.9830 c3         1 R83       0.149800
     28 C28          1.5850     5.3630     3.4600 c3         1 R83      -0.025400
     29 C29          2.9320     5.9930     3.0950 c3         1 R83      -0.027400
     30 C30          4.0610     5.1370     3.6750 c3         1 R83      -0.025400
     31 C31          3.8840     5.0250     5.1900 c3         1 R83       0.149800
     32 H11C        -0.3610     0.0110    -1.0210 h1         1 R83      -0.000633
     33 H12C        -0.3610    -0.8900     0.5010 h1         1 R83      -0.000633
     34 H13C        -0.3610     0.8790     0.5200 h1         1 R83      -0.000633
     35 H4           0.2120    -0.0010     2.3190 ha         1 R83       0.141000
     36 H71C        -0.7000     0.0050     5.5800 h1         1 R83      -0.000967
     37 H72C        -0.5430    -0.8910     4.0630 h1         1 R83      -0.000967
     38 H73C        -0.5410     0.8780     4.0490 h1         1 R83      -0.000967
     39 H9           5.1460    -0.0040     2.5820 ha         1 R83       0.181000
     40 H11          3.8160     0.3480    -0.7410 hn         1 R83       0.171500
     41 H141         7.3490    -0.6320    -0.8450 hc         1 R83       0.023367
     42 H142         6.2760     0.6150    -1.4930 hc         1 R83       0.023367
     43 H143         5.9720    -1.0890    -1.8560 hc         1 R83       0.023367
     44 H18          4.4570     2.1000     6.1730 hn         1 R83       0.349800
     45 H191         1.9140     0.8490     6.8370 h1         1 R83       0.030200
     46 H192         1.7840     1.9750     5.4800 h1         1 R83       0.030200
     47 H21          2.1060     1.6320     9.0560 ha         1 R83       0.114000
     48 H22          2.0640     3.5240    10.6340 ha         1 R83       0.104000
     49 H23          2.2560     5.8350     9.7990 ha         1 R83       0.102000
     50 H24          2.4980     6.2600     7.3850 ha         1 R83       0.111000
     51 H271         0.5340     4.7840     5.2430 h1         1 R83       0.012200
     52 H272         1.5390     6.2320     5.4250 h1         1 R83       0.012200
     53 H311         4.6720     4.4050     5.6000 h1         1 R83       0.012200
     54 H312         3.9290     6.0140     5.6310 h1         1 R83       0.012200
     55 H281         1.5160     4.3770     3.0160 hc         1 R83       0.018950
     56 H282         0.7820     5.9890     3.0900 hc         1 R83       0.018950
     57 H291         2.9870     6.9920     3.5090 hc         1 R83       0.012700
     58 H292         3.0290     6.0370     2.0170 hc         1 R83       0.012700
     59 H301         5.0150     5.6030     3.4570 hc         1 R83       0.018950
     60 H302         4.0270     4.1480     3.2340 hc         1 R83       0.018950
@<TRIPOS>BOND
     1     1     2 1   
     2     1    32 1   
     3     1    33 1   
     4     1    34 1   
     5     2     3 1   
     6     3     4 ar  
     7     3    10 ar  
     8     4     5 ar  
     9     4    35 1   
    10     5     6 1   
    11     5     8 ar  
    12     6     7 1   
    13     7    36 1   
    14     7    37 1   
    15     7    38 1   
    16     8     9 ar  
    17     8    15 1   
    18     9    10 ar  
    19     9    39 1   
    20    10    11 1   
    21    11    12 1   
    22    11    40 1   
    23    12    13 2   
    24    12    14 1   
    25    14    41 1   
    26    14    42 1   
    27    14    43 1   
    28    15    16 2   
    29    15    17 2   
    30    15    18 1   
    31    18    19 1   
    32    18    44 1   
    33    19    20 1   
    34    19    45 1   
    35    19    46 1   
    36    20    21 ar  
    37    20    25 ar  
    38    21    22 ar  
    39    21    47 1   
    40    22    23 ar  
    41    22    48 1   
    42    23    24 ar  
    43    23    49 1   
    44    24    25 ar  
    45    24    50 1   
    46    25    26 1   
    47    26    27 1   
    48    26    31 1   
    49    27    28 1   
    50    27    51 1   
    51    27    52 1   
    52    28    29 1   
    53    28    55 1   
    54    28    56 1   
    55    29    30 1   
    56    29    57 1   
    57    29    58 1   
    58    30    31 1   
    59    30    59 1   
    60    30    60 1   
    61    31    53 1   
    62    31    54 1   
@<TRIPOS>SUBSTRUCTURE
     1 R83         1 TEMP              0 ****  ****    0 ROOT
