@<TRIPOS>MOLECULE
molecule
   79    81     1     0     0
SMALL
bcc


@<TRIPOS>ATOM
      1 C1           0.0000     0.0000     0.0000 c3         1 R84       0.132700
      2 O2           1.4290     0.0000     0.0000 os         1 R84      -0.325900
      3 C3           2.0460     0.0000     1.2120 ca         1 R84       0.169100
      4 C4           1.2940     0.0010     2.3740 ca         1 R84      -0.317000
      5 C5           1.9250    -0.0000     3.6090 ca         1 R84       0.226100
      6 O6           1.1850    -0.0010     4.7500 os         1 R84      -0.328900
      7 C7          -0.2350     0.0000     4.6020 c3         1 R84       0.133700
      8 C8           3.3100    -0.0010     3.6810 ca         1 R84      -0.343500
      9 C9           4.0650    -0.0000     2.5230 ca         1 R84       0.020000
     10 C10          3.4380    -0.0050     1.2860 ca         1 R84       0.004600
     11 N11          4.2030    -0.0110     0.1100 ns         1 R84      -0.480100
     12 C12          5.4580    -0.5020     0.1260 c          1 R84       0.647100
     13 O13          5.8910    -1.0290     1.1280 o          1 R84      -0.604100
     14 C14          6.3250    -0.3950    -1.1030 c3         1 R84      -0.133400
     15 C15          7.6900    -1.0230    -0.8210 c3         1 R84      -0.170400
     16 C16          8.5560    -0.9160    -2.0490 c          1 R84       0.891600
     17 O17          8.1250    -0.3910    -3.0480 o          1 R84      -0.856800
     18 O18          9.8060    -1.4050    -2.0330 o          1 R84      -0.856800
     19 S19          4.1100    -0.0020     5.2510 sy         1 R84       1.440200
     20 O20          3.4880    -1.0230     6.0170 o          1 R84      -0.639800
     21 O21          5.5060     0.0320     4.9900 o          1 R84      -0.639800
     22 N22          3.7380     1.4320     5.9910 n7         1 R84      -0.905100
     23 C23          2.3520     1.7240     6.3660 c3         1 R84       0.298100
     24 C24          2.3250     2.8820     7.3300 ca         1 R84      -0.082300
     25 C25          2.1910     2.6520     8.6850 ca         1 R84      -0.116000
     26 C26          2.1680     3.7150     9.5690 ca         1 R84      -0.144000
     27 C27          2.2760     5.0110     9.1000 ca         1 R84      -0.120000
     28 C28          2.4100     5.2480     7.7470 ca         1 R84      -0.162000
     29 C29          2.4400     4.1830     6.8560 ca         1 R84       0.101600
     30 N30          2.5810     4.4200     5.4860 nh         1 R84      -0.619000
     31 C31          1.4800     5.2480     4.9800 c3         1 R84       0.165800
     32 C32          1.5860     5.3660     3.4580 c3         1 R84      -0.073900
     33 C33          2.9320     5.9950     3.0920 c3         1 R84      -0.074700
     34 C34          3.0110     7.4070     3.6740 c3         1 R84       0.143400
     35 O35          4.2360     8.0470     3.2270 os         1 R84      -0.435900
     36 C36          4.4590     9.3000     3.6530 c          1 R84       0.620100
     37 O37          3.6570     9.8460     4.3740 o          1 R84      -0.576000
     38 C38          5.7090    10.0280     3.2310 c3         1 R84      -0.105400
     39 C39          5.7180    11.4280     3.8480 c3         1 R84      -0.173400
     40 C40          6.9680    12.1550     3.4270 c          1 R84       0.890600
     41 O41          7.7700    11.6100     2.7060 o          1 R84      -0.853300
     42 O42          7.1920    13.4090     3.8510 o          1 R84      -0.853300
     43 C43          4.0610     5.1390     3.6720 c3         1 R84      -0.073900
     44 C44          3.8830     5.0290     5.1880 c3         1 R84       0.165800
     45 H11C        -0.3610    -0.8870     0.5060 h1         1 R84       0.037700
     46 H12C        -0.3610     0.0060    -1.0210 h1         1 R84       0.037700
     47 H13C        -0.3610     0.8820     0.5160 h1         1 R84       0.037700
     48 H4           0.2120    -0.0350     2.3190 ha         1 R84       0.134000
     49 H71C        -0.7000     0.0440     5.5790 h1         1 R84       0.038700
     50 H72C        -0.5460    -0.9050     4.0940 h1         1 R84       0.038700
     51 H73C        -0.5370     0.8630     4.0200 h1         1 R84       0.038700
     52 H9           5.1460    -0.0030     2.5810 ha         1 R84       0.218000
     53 H11          3.8290     0.3800    -0.7320 hn         1 R84       0.331500
     54 H141         6.4550     0.6490    -1.3630 hc         1 R84       0.068700
     55 H142         5.8510    -0.9160    -1.9260 hc         1 R84       0.068700
     56 H151         8.1640    -0.5020     0.0020 hc         1 R84       0.047200
     57 H152         7.5600    -2.0670    -0.5600 hc         1 R84       0.047200
     58 H22          4.4670     2.0720     6.2360 hn         1 R84       0.455800
     59 H231         1.9130     0.8530     6.8370 h1         1 R84       0.058200
     60 H232         1.7840     1.9790     5.4790 h1         1 R84       0.058200
     61 H25          2.1060     1.6380     9.0550 ha         1 R84       0.134000
     62 H26          2.0620     3.5310    10.6310 ha         1 R84       0.122000
     63 H27          2.2550     5.8410     9.7960 ha         1 R84       0.127000
     64 H28          2.4970     6.2640     7.3810 ha         1 R84       0.141000
     65 H311         0.5340     4.7870     5.2400 h1         1 R84       0.038450
     66 H312         1.5390     6.2350     5.4220 h1         1 R84       0.038450
     67 H441         4.6720     4.4090     5.5980 h1         1 R84       0.038450
     68 H442         3.9280     6.0170     5.6290 h1         1 R84       0.038450
     69 H321         0.7820     5.9910     3.0880 hc         1 R84       0.056950
     70 H322         1.5160     4.3800     3.0140 hc         1 R84       0.056950
     71 H33          3.0290     6.0370     2.0140 hc         1 R84       0.067700
     72 H341         3.0050     7.3530     4.7560 h1         1 R84       0.040700
     73 H342         2.1580     7.9850     3.3370 h1         1 R84       0.040700
     74 H431         5.0150     5.6040     3.4540 hc         1 R84       0.056950
     75 H432         4.0250     4.1500     3.2330 hc         1 R84       0.056950
     76 H381         5.7330    10.1090     2.1510 hc         1 R84       0.080200
     77 H382         6.5790     9.4780     3.5710 hc         1 R84       0.080200
     78 H391         4.8480    11.9780     3.5080 hc         1 R84       0.042700
     79 H392         5.6940    11.3470     4.9280 hc         1 R84       0.042700
@<TRIPOS>BOND
     1     1     2 1
     2     2     3 1
     3     3     4 ar
     4     3    10 ar
     5     4     5 ar
     6     5     6 1
     7     5     8 ar
     8     6     7 1
     9     8     9 ar
    10     8    19 1
    11     9    10 ar
    12    10    11 1
    13    11    12 1
    14    12    13 2
    15    12    14 1
    16    14    15 1
    17    15    16 1
    18    16    17 1
    19    16    18 1
    20    19    20 2
    21    19    21 2
    22    19    22 1
    23    22    23 1
    24    23    24 1
    25    24    25 ar
    26    24    29 ar
    27    25    26 ar
    28    26    27 ar
    29    27    28 ar
    30    28    29 ar
    31    29    30 1
    32    30    31 1
    33    30    44 1
    34    31    32 1
    35    32    33 1
    36    33    34 1
    37    33    43 1
    38    34    35 1
    39    35    36 1
    40    36    37 2
    41    36    38 1
    42    38    39 1
    43    39    40 1
    44    40    41 1
    45    40    42 1
    46    43    44 1
    47     1    45 1
    48     1    46 1
    49     1    47 1
    50     4    48 1
    51     7    49 1
    52     7    50 1
    53     7    51 1
    54     9    52 1
    55    11    53 1
    56    14    54 1
    57    14    55 1
    58    15    56 1
    59    15    57 1
    60    22    58 1
    61    23    59 1
    62    23    60 1
    63    25    61 1
    64    26    62 1
    65    27    63 1
    66    28    64 1
    67    31    65 1
    68    31    66 1
    69    44    67 1
    70    44    68 1
    71    32    69 1
    72    32    70 1
    73    33    71 1
    74    34    72 1
    75    34    73 1
    76    43    74 1
    77    43    75 1
    78    38    76 1
    79    38    77 1
    80    39    78 1
    81    39    79 1
@<TRIPOS>SUBSTRUCTURE
     1 R84         1 TEMP              0 ****  ****    0 ROOT
