@<TRIPOS>MOLECULE
R86
   72    75     1     0     0
SMALL
bcc


@<TRIPOS>ATOM
      1 C48          0.0000     0.0000     0.0000 c3         1 R86       0.244700
      2 O47          1.4270     0.0000     0.0000 os         1 R86      -0.306900
      3 C44          2.0460     0.0000     1.2120 ca         1 R86       0.150100
      4 C45          1.2890    -0.0000     2.3830 ca         1 R86      -0.173000
      5 C46          1.9230    -0.0010     3.6250 ca         1 R86      -0.051500
      6 C43          3.4400    -0.0010     1.2830 ca         1 R86      -0.173000
      7 C42          4.0750    -0.0030     2.5250 ca         1 R86      -0.051500
      8 C41          3.3090    -0.0030     3.6800 ca         1 R86      -0.134300
      9 C38          3.9950    -0.0050     5.0240 c3         1 R86       0.013900
     10 C37          4.2690     1.3990     5.5560 c3         1 R86       0.042000
     11 N35          4.9500     1.3880     6.8300 ns         1 R86      -0.224900
     12 C33          6.3320     1.3900     6.9510 c          1 R86       0.599100
     13 O34          7.1260     1.4010     6.0130 o          1 R86      -0.606100
     14 C32          6.7490     1.3780     8.4040 c3         1 R86      -0.136400
     15 C25          7.5810     0.1380     8.7560 c3         1 R86       0.030700
     16 C26          6.8270    -1.1660     8.4440 c3         1 R86       0.166800
     17 N24          8.0390     0.1880    10.1520 n          1 R86      -0.190800
     18 C27          9.1710     0.9440    10.4710 c          1 R86       0.614100
     19 O28          9.7760     1.6550     9.6650 o          1 R86      -0.603100
     20 C29          9.6530     0.8620    11.8980 c3         1 R86      -0.138700
     21 C31         11.1660     1.0280    11.9460 c3         1 R86       0.017900
     22 C30          8.9550     1.9100    12.7560 c3         1 R86       0.017900
     23 C23          7.3250    -0.6550    11.1150 c3         1 R86       0.051000
     24 C22          5.8600    -0.8720    10.7480 c3         1 R86       0.174800
     25 N21          5.7250    -1.3870     9.3840 nh         1 R86      -0.476300
     26 C13          4.5960    -2.1100     9.0100 ca         1 R86       0.587200
     27 N12          4.6750    -3.0790     8.0420 nb         1 R86      -0.708000
     28 C14          3.3720    -1.8350     9.6370 ca         1 R86      -0.436600
     29 C15          2.2760    -2.5720     9.2390 ca         1 R86       0.481600
     30 C17          0.9500    -2.3180     9.8750 c3         1 R86      -0.061400
     31 N16          2.3210    -3.5300     8.2900 nb         1 R86      -0.682000
     32 C11          3.5340    -3.7290     7.7410 ca         1 R86       0.581500
     33 N3           3.6190    -4.7080     6.7610 na         1 R86       0.286300
     34 C4           4.7440    -5.0750     6.0740 cc         1 R86      -0.406600
     35 C5           4.3300    -6.0720     5.2230 cd         1 R86       0.311200
     36 NFE          2.9890    -6.3240     5.3690 nd         1 R86      -0.603000
     37 C2           2.5920    -5.4880     6.3020 cc         1 R86       0.244400
     38 H481        -0.3610     0.0030    -1.0210 h1         1 R86      -0.002633
     39 H482        -0.3610     0.8830     0.5130 h1         1 R86      -0.002633
     40 H483        -0.3610    -0.8860     0.5080 h1         1 R86      -0.002633
     41 H45          0.2070     0.0010     2.3280 ha         1 R86       0.118000
     42 H46          1.3400    -0.0020     4.5380 ha         1 R86       0.108000
     43 H43          4.0290    -0.0010     0.3740 ha         1 R86       0.118000
     44 H42          5.1560    -0.0040     2.5870 ha         1 R86       0.108000
     45 H381         3.3690    -0.5310     5.7340 hc         1 R86       0.018700
     46 H382         4.9370    -0.5330     4.9330 hc         1 R86       0.018700
     47 H371         4.8800     1.9330     4.8370 h1         1 R86       0.029200
     48 H372         3.3260     1.9210     5.6680 h1         1 R86       0.029200
     49 HN35         4.3990     1.3800     7.6650 hn         1 R86       0.173500
     50 H321         7.3370     2.2650     8.6080 hc         1 R86       0.041200
     51 H322         5.8620     1.3940     9.0250 hc         1 R86       0.041200
     52 H25          8.4650     0.1520     8.1300 h1         1 R86       0.070700
     53 H261         6.4270    -1.1100     7.4390 h1         1 R86       0.039700
     54 H262         7.5190    -1.9970     8.5090 h1         1 R86       0.039700
     55 H29          9.4040    -0.1180    12.2870 hc         1 R86       0.028700
     56 H311        11.5020     0.9790    12.9740 hc         1 R86       0.010533
     57 H312        11.6340     0.2350    11.3750 hc         1 R86       0.010533
     58 H313        11.4380     1.9870    11.5220 hc         1 R86       0.010533
     59 H301         8.8360     1.5300    13.7630 hc         1 R86       0.010533
     60 H302         9.5520     2.8130    12.7790 hc         1 R86       0.010533
     61 H303         7.9820     2.1310    12.3360 hc         1 R86       0.010533
     62 H231         7.8170    -1.6200    11.1630 h1         1 R86       0.027700
     63 H232         7.3730    -0.1850    12.0900 h1         1 R86       0.027700
     64 H221         5.3330     0.0720    10.8230 h1         1 R86       0.023700
     65 H222         5.4230    -1.5830    11.4390 h1         1 R86       0.023700
     66 H14          3.2330    -0.9000    10.1670 ha         1 R86       0.140000
     67 H171         1.0270    -2.4730    10.9450 hc         1 R86       0.023033
     68 H172         0.2160    -3.0000     9.4640 hc         1 R86       0.023033
     69 H173         0.6450    -1.2970     9.6790 hc         1 R86       0.023033
     70 H4           5.7430    -4.6690     6.1780 h4         1 R86       0.171000
     71 H5           4.9770    -6.5910     4.5260 h4         1 R86      -0.001900
     72 H2           1.5730    -5.4230     6.6640 h5         1 R86       0.032100
@<TRIPOS>BOND
     1     1     2 1   
     2     1    38 1   
     3     1    39 1   
     4     1    40 1   
     5     2     3 1   
     6     3     4 ar  
     7     3     6 ar  
     8     4     5 ar  
     9     4    41 1   
    10     5     8 ar  
    11     5    42 1   
    12     6     7 ar  
    13     6    43 1   
    14     7     8 ar  
    15     7    44 1   
    16     8     9 1   
    17     9    10 1   
    18     9    45 1   
    19     9    46 1   
    20    10    11 1   
    21    10    47 1   
    22    10    48 1   
    23    11    12 1   
    24    11    49 1   
    25    12    13 2   
    26    12    14 1   
    27    14    15 1   
    28    14    50 1   
    29    14    51 1   
    30    15    16 1   
    31    15    17 1   
    32    15    52 1   
    33    16    25 1   
    34    16    53 1   
    35    16    54 1   
    36    17    18 1   
    37    17    23 1   
    38    18    19 2   
    39    18    20 1   
    40    20    21 1   
    41    20    22 1   
    42    20    55 1   
    43    21    56 1   
    44    21    57 1   
    45    21    58 1   
    46    22    59 1   
    47    22    60 1   
    48    22    61 1   
    49    23    24 1   
    50    23    62 1   
    51    23    63 1   
    52    24    25 1   
    53    24    64 1   
    54    24    65 1   
    55    25    26 1   
    56    26    27 ar  
    57    26    28 ar  
    58    27    32 ar  
    59    28    29 ar  
    60    28    66 1   
    61    29    30 1   
    62    29    31 ar  
    63    30    67 1   
    64    30    68 1   
    65    30    69 1   
    66    31    32 ar  
    67    32    33 1   
    68    33    34 1   
    69    33    37 1   
    70    34    35 2   
    71    34    70 1   
    72    35    36 1   
    73    35    71 1   
    74    36    37 2   
    75    37    72 1   
@<TRIPOS>SUBSTRUCTURE
     1 R86         1 TEMP              0 ****  ****    0 ROOT
