@<TRIPOS>MOLECULE
R8C
   52    55     1     0     0
SMALL
bcc


@<TRIPOS>ATOM
      1 C1           0.0000     0.0000     0.0000 c3         1 R8C      -0.017100
      2 C2           1.5290     0.0000     0.0000 c3         1 R8C       0.012700
      3 C4           2.0390     0.0000     1.4430 c3         1 R8C       0.218400
      4 C6           3.5470    -0.0020     1.4430 ca         1 R8C      -0.150300
      5 C7           4.2370    -1.1950     1.5480 ca         1 R8C      -0.083000
      6 C8           5.6190    -1.1960     1.5480 ca         1 R8C      -0.095500
      7 C9           6.3120    -0.0030     1.4440 ca         1 R8C      -0.087000
      8 C10          5.6210     1.1900     1.3390 ca         1 R8C      -0.095500
      9 C11          4.2380     1.1900     1.3330 ca         1 R8C      -0.083000
     10 O12          1.5640     1.1670     2.1150 os         1 R8C      -0.288900
     11 C13          1.4710     1.1030     3.4710 ca         1 R8C       0.111100
     12 C14          0.9040     2.1620     4.1770 ca         1 R8C      -0.086000
     13 C15          0.8010     2.1190     5.5390 ca         1 R8C      -0.083000
     14 C16          1.2630     1.0090     6.2380 ca         1 R8C      -0.211200
     15 C17          1.8370    -0.0670     5.5340 ca         1 R8C      -0.220900
     16 C18          1.9320    -0.0120     4.1390 ca         1 R8C      -0.134000
     17 C19          2.2160    -1.0590     6.5360 cc         1 R8C       0.434800
     18 N20          1.8870    -0.5900     7.7060 nd         1 R8C      -0.624100
     19 N21          1.3010     0.6720     7.5700 na         1 R8C       0.591800
     20 C22          0.8280     1.4670     8.6220 ca         1 R8C      -0.135200
     21 C23          0.2430     0.8740     9.7330 ca         1 R8C      -0.086000
     22 C24         -0.2230     1.6590    10.7700 ca         1 R8C      -0.115000
     23 C25         -0.1070     3.0370    10.7020 ca         1 R8C       0.100900
     24 C26          0.4760     3.6310     9.5950 ca         1 R8C      -0.115000
     25 C27          0.9490     2.8490     8.5600 ca         1 R8C      -0.086000
     26 F28         -0.5640     3.8030    11.7170 f          1 R8C      -0.125900
     27 N29          2.0180    -1.1980    -0.6900 ns         1 R8C      -0.147900
     28 C30          2.1460    -1.1960    -2.0320 c          1 R8C       0.513100
     29 O31          1.8580    -0.2040    -2.6670 o          1 R8C      -0.580100
     30 C32          2.6470    -2.4260    -2.7410 c3         1 R8C       0.507900
     31 F33          3.9300    -2.7420    -2.2790 f          1 R8C      -0.196633
     32 F34          1.7830    -3.4970    -2.4860 f          1 R8C      -0.196633
     33 F35          2.6950    -2.1840    -4.1180 f          1 R8C      -0.196633
     34 H1          -0.3610     0.9570     0.3560 hc         1 R8C       0.018700
     35 H1A         -0.3610    -0.1700    -1.0070 hc         1 R8C       0.018700
     36 H1B         -0.3610    -0.7870     0.6510 hc         1 R8C       0.018700
     37 H2           1.8910     0.8840    -0.5110 h1         1 R8C       0.073700
     38 H4           1.6770    -0.8840     1.9540 h1         1 R8C       0.029700
     39 H7           3.6940    -2.1290     1.6290 ha         1 R8C       0.109000
     40 H8           6.1600    -2.1310     1.6310 ha         1 R8C       0.106500
     41 H9           7.3950    -0.0030     1.4470 ha         1 R8C       0.106000
     42 H10          6.1630     2.1240     1.2550 ha         1 R8C       0.106500
     43 H11          3.6970     2.1250     1.2500 ha         1 R8C       0.109000
     44 H14          0.5410     3.0300     3.6400 ha         1 R8C       0.117000
     45 H15          0.3580     2.9500     6.0740 ha         1 R8C       0.116000
     46 H18          2.2400    -0.8880     3.5820 ha         1 R8C       0.125000
     47 H19          2.6870    -2.0150     6.3410 h4         1 R8C       0.015800
     48 H23          0.1520    -0.2050     9.7860 ha         1 R8C       0.126500
     49 H24         -0.6800     1.1960    11.6360 ha         1 R8C       0.122500
     50 H26          0.5690     4.7090     9.5450 ha         1 R8C       0.122500
     51 H27          1.4050     3.3150     7.6940 ha         1 R8C       0.126500
     52 HN29         2.1940    -2.0360    -0.1720 hn         1 R8C       0.181500
@<TRIPOS>BOND
     1     1     2 1   
     2     1    34 1   
     3     1    35 1   
     4     1    36 1   
     5     2     3 1   
     6     2    27 1   
     7     2    37 1   
     8     3     4 1   
     9     3    10 1   
    10     3    38 1   
    11     4     5 ar  
    12     4     9 ar  
    13     5     6 ar  
    14     5    39 1   
    15     6     7 ar  
    16     6    40 1   
    17     7     8 ar  
    18     7    41 1   
    19     8     9 ar  
    20     8    42 1   
    21     9    43 1   
    22    10    11 1   
    23    11    12 ar  
    24    11    16 ar  
    25    12    13 ar  
    26    12    44 1   
    27    13    14 ar  
    28    13    45 1   
    29    14    15 ar  
    30    14    19 1   
    31    15    16 ar  
    32    15    17 1   
    33    16    46 1   
    34    17    18 2   
    35    17    47 1   
    36    18    19 1   
    37    19    20 1   
    38    20    21 ar  
    39    20    25 ar  
    40    21    22 ar  
    41    21    48 1   
    42    22    23 ar  
    43    22    49 1   
    44    23    24 ar  
    45    23    26 1   
    46    24    25 ar  
    47    24    50 1   
    48    25    51 1   
    49    27    28 1   
    50    27    52 1   
    51    28    29 2   
    52    28    30 1   
    53    30    31 1   
    54    30    32 1   
    55    30    33 1   
@<TRIPOS>SUBSTRUCTURE
     1 R8C         1 TEMP              0 ****  ****    0 ROOT
