@<TRIPOS>MOLECULE
molecule
   40    43     1     0     0
SMALL
bcc


@<TRIPOS>ATOM
      1 Cl28         0.0000     0.0000     0.0000 cl         1 R8D      -0.089400
      2 C13          1.7360     0.0000     0.0000 ca         1 R8D      -0.046600
      3 C8           2.4300     0.0000     1.2020 ca         1 R8D       0.190100
      4 O7           1.7520    -0.0000     2.3790 os         1 R8D      -0.226200
      5 C4           2.4720     0.0110     3.5320 ca         1 R8D       0.151100
      6 C3           2.8280     1.2170     4.1130 ca         1 R8D      -0.108000
      7 C2           3.5680     1.2240     5.2970 ca         1 R8D      -0.029000
      8 C25          3.9380     2.4670     5.9040 cg         1 R8D       0.230800
      9 N26          4.2130     3.4570     6.3910 n1         1 R8D      -0.340800
     10 C5           2.8480    -1.1860     4.1280 ca         1 R8D      -0.111000
     11 C6           3.5810    -1.1800     5.3020 ca         1 R8D       0.009400
     12 Cl27         4.0450    -2.6810     6.0390 cl         1 R8D      -0.084400
     13 C1           3.9450     0.0170     5.8870 ca         1 R8D      -0.089000
     14 C12          2.4280    -0.0060    -1.1980 ca         1 R8D      -0.056000
     15 C11          3.8090    -0.0060    -1.2000 ca         1 R8D      -0.248000
     16 C10          4.5060    -0.0010    -0.0010 ca         1 R8D       0.185100
     17 C9           3.8170    -0.0000     1.2010 ca         1 R8D      -0.243000
     18 O14          5.8660    -0.0020    -0.0070 os         1 R8D      -0.330900
     19 C15          6.5110    -0.0070    -1.2810 c3         1 R8D       0.138100
     20 C16          8.0050    -0.0070    -1.0890 cc         1 R8D       0.372900
     21 N20          8.7670    -1.0590    -0.9860 nd         1 R8D      -0.483100
     22 N19         10.1000    -0.6710    -0.8150 na         1 R8D      -0.135800
     23 C18         10.1760     0.6950    -0.8120 ca         1 R8D       0.490800
     24 N24         11.1780     1.5560    -0.6870 nb         1 R8D      -0.724000
     25 C23         10.9750     2.8550    -0.7170 ca         1 R8D       0.448200
     26 C22          9.7050     3.3890    -0.8840 ca         1 R8D      -0.283300
     27 C21          8.6300     2.5500    -1.0190 ca         1 R8D       0.000000
     28 C17          8.8600     1.1710    -0.9890 ca         1 R8D      -0.362200
     29 H3           2.6750     2.2880     4.0770 ha         1 R8D       0.176000
     30 H5           2.7800    -2.2420     3.8960 ha         1 R8D       0.174000
     31 H1           4.5880     0.0340     6.7590 ha         1 R8D       0.156000
     32 H12          1.7540    -0.1310    -2.0370 ha         1 R8D       0.154000
     33 H11          4.2050    -0.2320    -2.1830 ha         1 R8D       0.145000
     34 H9           4.5120     0.0620     2.0300 ha         1 R8D       0.168000
     35 H15          6.0530    -0.6690    -2.0070 h1         1 R8D       0.064700
     36 H15A         6.3640     1.0540    -1.4450 h1         1 R8D       0.064700
     37 HN19        10.7360    -1.3560    -0.4570 hn         1 R8D       0.338700
     38 H23         11.8940     3.3980    -0.5290 h4         1 R8D       0.033100
     39 H22          9.9420     4.4430    -0.9620 ha         1 R8D       0.154000
     40 H21          7.6530     2.7960    -1.4200 ha         1 R8D       0.143000
@<TRIPOS>BOND
     1     1     2 1
     2     2     3 ar
     3     2    14 ar
     4     3     4 1
     5     3    17 ar
     6     4     5 1
     7     5     6 ar
     8     5    10 ar
     9     6     7 ar
    10     7     8 1
    11     7    13 ar
    12     8     9 3
    13    10    11 ar
    14    11    12 1
    15    11    13 ar
    16    14    15 ar
    17    15    16 ar
    18    16    17 ar
    19    16    18 1
    20    18    19 1
    21    19    20 1
    22    20    21 2
    23    20    28 1
    24    21    22 1
    25    22    23 1
    26    23    24 ar
    27    23    28 ar
    28    24    25 ar
    29    25    26 ar
    30    26    27 ar
    31    27    28 ar
    32     6    29 1
    33    10    30 1
    34    13    31 1
    35    14    32 1
    36    15    33 1
    37    17    34 1
    38    19    35 1
    39    19    36 1
    40    22    37 1
    41    25    38 1
    42    26    39 1
    43    27    40 1
@<TRIPOS>SUBSTRUCTURE
     1 R8D         1 TEMP              0 ****  ****    0 ROOT
