@<TRIPOS>MOLECULE
molecule
   42    45     1     0     0
SMALL
bcc


@<TRIPOS>ATOM
      1 Cl29         0.0000     0.0000     0.0000 cl         1 R8E      -0.089400
      2 C13          1.7360     0.0000     0.0000 ca         1 R8E      -0.034600
      3 C8           2.4300     0.0000     1.2030 ca         1 R8E       0.173100
      4 O7           1.7510    -0.0020     2.3800 os         1 R8E      -0.227200
      5 C4           2.4720     0.0100     3.5320 ca         1 R8E       0.103100
      6 C3           2.8260     1.2150     4.1150 ca         1 R8E      -0.099000
      7 C2           3.5660     1.2230     5.2980 ca         1 R8E       0.002000
      8 C26          3.9360     2.4650     5.9060 cg         1 R8E       0.235800
      9 N27          4.2480     3.4490     6.3820 n1         1 R8E      -0.342800
     10 C5           2.8470    -1.1870     4.1280 ca         1 R8E      -0.110000
     11 C6           3.5800    -1.1820     5.3010 ca         1 R8E       0.030400
     12 Cl28         4.0450    -2.6830     6.0380 cl         1 R8E      -0.082400
     13 C1           3.9440     0.0150     5.8870 ca         1 R8E      -0.086000
     14 C12          2.4260    -0.0040    -1.1980 ca         1 R8E      -0.049000
     15 C11          3.8090    -0.0040    -1.2010 ca         1 R8E      -0.248000
     16 C10          4.5070     0.0010    -0.0010 ca         1 R8E       0.183100
     17 C9           3.8160     0.0010     1.2010 ca         1 R8E      -0.235000
     18 O14          5.8660     0.0010    -0.0050 os         1 R8E      -0.315900
     19 C15          6.5110    -0.0040    -1.2810 c3         1 R8E       0.144100
     20 C16          8.0050    -0.0030    -1.0870 cc         1 R8E       0.369900
     21 N20          8.7680    -1.0540    -0.9850 nd         1 R8E      -0.467100
     22 N19         10.1010    -0.6660    -0.8160 na         1 R8E      -0.143800
     23 C18         10.1740     0.7000    -0.8120 ca         1 R8E       0.496800
     24 N24         11.1780     1.5620    -0.6860 nb         1 R8E      -0.745000
     25 C23         10.9740     2.8660    -0.7180 ca         1 R8E       0.733200
     26 N25         12.0550     3.7270    -0.5840 nv         1 R8E      -1.082500
     27 C22          9.6930     3.3980    -0.8850 ca         1 R8E      -0.295300
     28 C21          8.6250     2.5560    -1.0190 ca         1 R8E      -0.020000
     29 C17          8.8590     1.1750    -0.9880 ca         1 R8E      -0.365200
     30 H3           2.5750     2.1470     3.6250 ha         1 R8E       0.162000
     31 H5           2.6010    -2.1290     3.6520 ha         1 R8E       0.166000
     32 H1           4.5190     0.0170     6.8060 ha         1 R8E       0.160000
     33 H12          1.8840    -0.0070    -2.1360 ha         1 R8E       0.152000
     34 H11          4.3480    -0.0070    -2.1400 ha         1 R8E       0.143000
     35 H9           4.3590     0.0010     2.1390 ha         1 R8E       0.162000
     36 H15          6.2180     0.8790    -1.8370 h1         1 R8E       0.055200
     37 H15A         6.2180    -0.8900    -1.8300 h1         1 R8E       0.055200
     38 HN19        10.8840    -1.2800    -0.7130 hn         1 R8E       0.343700
     39 HN25        12.2860     4.1050     0.3140 hn         1 R8E       0.440300
     40 HN2A        12.6200     3.9480    -1.3800 hn         1 R8E       0.440300
     41 H22          9.5510     4.4720    -0.9070 ha         1 R8E       0.148000
     42 H21          7.6280     2.9610    -1.1490 ha         1 R8E       0.140000
@<TRIPOS>BOND
     1     1     2 1
     2     2     3 ar
     3     2    14 ar
     4     3     4 1
     5     3    17 ar
     6     4     5 1
     7     5     6 ar
     8     5    10 ar
     9     6     7 ar
    10     7     8 1
    11     7    13 ar
    12     8     9 3
    13    10    11 ar
    14    11    12 1
    15    11    13 ar
    16    14    15 ar
    17    15    16 ar
    18    16    17 ar
    19    16    18 1
    20    18    19 1
    21    19    20 1
    22    20    21 2
    23    20    29 1
    24    21    22 1
    25    22    23 1
    26    23    24 ar
    27    23    29 ar
    28    24    25 ar
    29    25    26 1
    30    25    27 ar
    31    27    28 ar
    32    28    29 ar
    33     6    30 1
    34    10    31 1
    35    13    32 1
    36    14    33 1
    37    15    34 1
    38    17    35 1
    39    19    36 1
    40    19    37 1
    41    22    38 1
    42    26    39 1
    43    26    40 1
    44    27    41 1
    45    28    42 1
@<TRIPOS>SUBSTRUCTURE
     1 R8E         1 TEMP              0 ****  ****    0 ROOT
