@<TRIPOS>MOLECULE
molecule
   27    29     1     0     0
SMALL
bcc


@<TRIPOS>ATOM
      1 OAA          0.0000     0.0000     0.0000 o          1 R8J      -0.827800
      2 OAC          1.8890    -0.0000    -1.1670 o          1 R8J      -0.827800
      3 CAD          8.7710     0.0210     8.1590 cc         1 R8J       0.267200
      4 CAE          1.2610     0.0010     2.4990 ca         1 R8J      -0.055000
      5 CAF          1.9870     0.0000     3.6590 ca         1 R8J      -0.312300
      6 CAG          7.4180     0.0140     8.1010 cd         1 R8J      -0.319600
      7 CAH          3.3500    -0.0010     1.2890 ca         1 R8J       0.474200
      8 CAI          4.6450    -0.0000     6.9520 cd         1 R8J       0.075000
      9 NAJ          9.2070     0.0210     6.8950 nc         1 R8J      -0.381000
     10 NAK          4.0080    -0.0020     2.4290 nb         1 R8J      -0.703000
     11 NAL          8.1940     0.0110     6.1020 nd         1 R8J      -0.150800
     12 NAM          3.5980    -0.0010     6.0720 na         1 R8J      -0.532000
     13 CAN          1.2150     0.0000     0.0000 c          1 R8J       0.884200
     14 CAO          1.9530    -0.0010     1.2770 ca         1 R8J      -0.231900
     15 CAP          3.3780    -0.0020     3.5960 ca         1 R8J       0.519200
     16 CAQ          5.7970     0.0040     6.2430 cc         1 R8J      -0.223300
     17 CAR          5.4620     0.0010     4.8640 c          1 R8J       0.704700
     18 NAS          7.0990     0.0110     6.7780 na         1 R8J       0.245200
     19 NAT          4.1170    -0.0010     4.7720 n          1 R8J      -0.265700
     20 HAD          9.3810     0.0260     9.0540 h4         1 R8J       0.042100
     21 HAE          0.1780     0.0010     2.5230 ha         1 R8J       0.157000
     22 HAF          1.4840     0.0000     4.6190 ha         1 R8J       0.099000
     23 HAG          6.7300     0.0140     8.9370 h4         1 R8J       0.170000
     24 HAH          3.8950    -0.0020     0.3530 h4         1 R8J       0.065100
     25 HAI          4.5780    -0.5650     7.8740 h4         1 R8J       0.176000
     26 HNAM         2.6270    -0.0030     6.3160 hn         1 R8J       0.495800
     27 OAB          6.2480     0.0030     3.9330 o          1 R8J      -0.542500
@<TRIPOS>BOND
     1     1    13 1
     2    27    17 2
     3    13     2 1
     4     6     3 2
     5     3     9 1
     6     3    20 1
     7     4    14 ar
     8     4     5 ar
     9     4    21 1
    10     5    15 ar
    11     5    22 1
    12     6    18 1
    13     6    23 1
    14    14     7 ar
    15     7    10 ar
    16     7    24 1
    17    12     8 1
    18    16     8 2
    19     8    25 1
    20    11     9 2
    21    15    10 ar
    22    18    11 1
    23    19    12 1
    24    12    26 1
    25    13    14 1
    26    15    19 1
    27    17    16 1
    28    16    18 1
    29    19    17 1
@<TRIPOS>SUBSTRUCTURE
     1 R8J         1 TEMP              0 ****  ****    0 ROOT
