@<TRIPOS>MOLECULE
molecule
   42    43     1     0     0
SMALL
bcc


@<TRIPOS>ATOM
      1 F2           0.0000     0.0000     0.0000 f          1 R91      -0.241800
      2 C1           1.3990     0.0000     0.0000 c3         1 R91       0.577700
      3 F1           1.8660     0.0000     1.3190 f          1 R91      -0.241800
      4 O1           1.8760    -1.1670    -0.6740 os         1 R91      -0.325900
      5 C2           1.5110    -2.3680    -0.1580 ca         1 R91       0.124100
      6 C3           1.9420    -3.5470    -0.7670 ca         1 R91       0.115100
      7 O2           2.7270    -3.4900    -1.8770 os         1 R91      -0.302900
      8 C8           3.2320    -4.7300    -2.3780 c3         1 R91       0.103100
      9 C11          2.2410    -5.3490    -3.3880 c3         1 R91       0.099400
     10 O3           2.7080    -4.9080    -4.6810 os         1 R91      -0.398600
     11 C10          4.1470    -5.0030    -4.6180 c3         1 R91       0.121400
     12 C9           4.5160    -4.4960    -3.2060 c3         1 R91      -0.112400
     13 C7           0.7150    -2.4210     0.9790 ca         1 R91      -0.182000
     14 C6           0.3410    -3.6360     1.5070 ca         1 R91      -0.091000
     15 C5           0.7650    -4.8230     0.8980 ca         1 R91      -0.168600
     16 C4           1.5730    -4.7690    -0.2450 ca         1 R91      -0.142000
     17 C12          0.3690    -6.1210     1.4600 c          1 R91       0.580700
     18 O4           0.7430    -7.1490     0.9340 o          1 R91      -0.532100
     19 C13         -0.5000    -6.1770     2.6890 c3         1 R91      -0.173400
     20 C14         -0.7620    -7.6370     3.0630 c3         1 R91      -0.066700
     21 C16         -1.5390    -7.6950     4.3800 c3         1 R91      -0.089600
     22 C15         -1.5820    -8.3060     1.9570 c3         1 R91      -0.089600
     23 H1           1.7600     0.8850    -0.5110 h3         1 R91       0.125700
     24 H2           3.4260    -5.4220    -1.5680 h1         1 R91       0.060700
     25 H3           1.2390    -4.9800    -3.2050 h1         1 R91       0.063200
     26 H4           2.2680    -6.4300    -3.3270 h1         1 R91       0.063200
     27 H5           4.4610    -6.0320    -4.7420 h1         1 R91       0.053200
     28 H6           4.5990    -4.3700    -5.3730 h1         1 R91       0.053200
     29 H7           4.7610    -3.4410    -3.2340 hc         1 R91       0.068700
     30 H8           5.3380    -5.0730    -2.8000 hc         1 R91       0.068700
     31 H9           0.3860    -1.5030     1.4510 ha         1 R91       0.160000
     32 H10         -0.2820    -3.6740     2.3920 ha         1 R91       0.141000
     33 H11          1.9050    -5.6850    -0.7180 ha         1 R91       0.163000
     34 H12          0.0030    -5.6800     3.5100 hc         1 R91       0.066200
     35 H13         -1.4420    -5.6810     2.4890 hc         1 R91       0.066200
     36 H14          0.1820    -8.1560     3.1770 hc         1 R91       0.063700
     37 H15         -1.6950    -8.7290     4.6620 hc         1 R91       0.036367
     38 H16         -2.4980    -7.2070     4.2550 hc         1 R91       0.036367
     39 H17         -0.9750    -7.1910     5.1550 hc         1 R91       0.036367
     40 H18         -2.2640    -9.0230     2.3980 hc         1 R91       0.036367
     41 H19         -2.1470    -7.5530     1.4210 hc         1 R91       0.036367
     42 H20         -0.9160    -8.8150     1.2710 hc         1 R91       0.036367
@<TRIPOS>BOND
     1    21    20 1
     2    20    22 1
     3    20    19 1
     4    19    17 1
     5    18    17 2
     6    17    15 1
     7    15    16 ar
     8    15    14 ar
     9    16     6 ar
    10     9     8 1
    11     9    10 1
    12    14    13 ar
    13     8     7 1
    14     8    12 1
    15     6     7 1
    16     6     5 ar
    17    10    11 1
    18    13     5 ar
    19    12    11 1
    20     5     4 1
    21     4     2 1
    22     1     2 1
    23     2     3 1
    24     2    23 1
    25     8    24 1
    26     9    25 1
    27     9    26 1
    28    11    27 1
    29    11    28 1
    30    12    29 1
    31    12    30 1
    32    13    31 1
    33    14    32 1
    34    16    33 1
    35    19    34 1
    36    19    35 1
    37    20    36 1
    38    21    37 1
    39    21    38 1
    40    21    39 1
    41    22    40 1
    42    22    41 1
    43    22    42 1
@<TRIPOS>SUBSTRUCTURE
     1 R91         1 TEMP              0 ****  ****    0 ROOT
