@<TRIPOS>MOLECULE
molecule
   39    40     1     0     0
SMALL
bcc


@<TRIPOS>ATOM
      1 Cl6          0.0000     0.0000     0.0000 cl         1 R92      -0.076400
      2 C6           1.7360     0.0000     0.0000 ca         1 R92       0.095400
      3 C1           2.4250     0.0000     1.2010 ca         1 R92      -0.345500
      4 S            1.5390     0.0010     2.7240 sy         1 R92       1.242200
      5 O1           0.5570    -1.0200     2.6170 o          1 R92      -0.506300
      6 O2           2.5160     0.0360     3.7560 o          1 R92      -0.506300
      7 N1           0.7160     1.4350     2.8110 nz         1 R92      -0.811500
      8 C5           2.4260    -0.0070    -1.2010 ca         1 R92      -0.118000
      9 C4           3.8050    -0.0130    -1.2070 ca         1 R92      -0.014000
     10 C3           4.5060    -0.0130     0.0000 ca         1 R92      -0.134600
     11 C2           3.8050    -0.0010     1.2080 ca         1 R92       0.047000
     12 C            5.9830    -0.0210    -0.0000 c          1 R92       0.661700
     13 O7           6.5910    -0.0200     1.0530 o          1 R92      -0.580100
     14 N8           6.6570    -0.0290    -1.1680 ns         1 R92      -0.565900
     15 C9           8.1210    -0.0360    -1.1680 c3         1 R92       0.172000
     16 C16          8.6240    -1.4790    -1.0950 c3         1 R92      -0.102100
     17 C10          8.6270     0.6090    -2.4320 ca         1 R92      -0.136300
     18 C11          9.8720     1.2210    -2.4500 ca         1 R92       0.154100
     19 O11         10.6370     1.2410    -1.3270 oh         1 R92      -0.495100
     20 C12         10.3350     1.8130    -3.6160 ca         1 R92      -0.209000
     21 C14          9.5560     1.7910    -4.7570 ca         1 R92      -0.076000
     22 C15          8.3150     1.1800    -4.7370 ca         1 R92      -0.157000
     23 C13          7.8540     0.5850    -3.5780 ca         1 R92      -0.101000
     24 H1          -0.1180     1.3750     2.2600 hn         1 R92       0.494800
     25 H2           1.2930     2.1730     2.4600 hn         1 R92       0.494800
     26 H3           1.8810    -0.0070    -2.1370 ha         1 R92       0.178000
     27 H4           4.3430    -0.0210    -2.1470 ha         1 R92       0.165000
     28 H5           4.3430    -0.0010     2.1480 ha         1 R92       0.200000
     29 H6           6.1560    -0.0550    -2.0340 hn         1 R92       0.313500
     30 H7           8.4850     0.5170    -0.3100 h1         1 R92       0.104700
     31 H8           9.5810    -1.5030    -0.5870 hc         1 R92       0.051033
     32 H9           7.9100    -2.0830    -0.5490 hc         1 R92       0.051033
     33 H10          8.7380    -1.8730    -2.0980 hc         1 R92       0.051033
     34 H11         11.4350     1.7130    -1.4990 ho         1 R92       0.433000
     35 H12         11.3060     2.2920    -3.6330 ha         1 R92       0.142000
     36 H13          9.9160     2.2550    -5.6670 ha         1 R92       0.143000
     37 H14          7.7070     1.1620    -5.6330 ha         1 R92       0.137000
     38 H15          6.8810     0.1070    -3.5650 ha         1 R92       0.113000
     39 H131         0.4860     1.6310     3.7650 hn         1 R92       0.494800
@<TRIPOS>BOND
     1    21    20 ar
     2    21    22 ar
     3    20    18 ar
     4    22    23 ar
     5    18    19 1
     6    18    17 ar
     7    23    17 ar
     8    17    15 1
     9    15    16 1
    10    15    14 1
    11    14    12 1
    12    12    13 2
    13    12    10 1
    14     9    10 ar
    15     9     8 ar
    16    10    11 ar
    17     8     2 ar
    18    11     3 ar
    19     2     3 ar
    20     2     1 1
    21     3     4 1
    22     4     5 2
    23     4     6 2
    24     4     7 1
    25     7    24 1
    26     7    25 1
    27     8    26 1
    28     9    27 1
    29    11    28 1
    30    14    29 1
    31    15    30 1
    32    16    31 1
    33    16    32 1
    34    16    33 1
    35    19    34 1
    36    20    35 1
    37    21    36 1
    38    22    37 1
    39    23    38 1
    40    39     7 1
@<TRIPOS>SUBSTRUCTURE
     1 R92         1 TEMP              0 ****  ****    0 ROOT
