@<TRIPOS>MOLECULE
R93
   55    59     1     0     0
SMALL
bcc


@<TRIPOS>ATOM
      1 O20          0.0000     0.0000     0.0000 o          1 R93      -0.624100
      2 C18          1.2150     0.0000     0.0000 c          1 R93       0.600700
      3 N8           1.8890     0.0000     1.1680 ns         1 R93      -0.060400
      4 O21          1.1800     0.0020     2.3940 oh         1 R93      -0.437100
      5 C30          1.9550    -0.0080    -1.2800 ca         1 R93      -0.147600
      6 C29          1.2660    -0.1460    -2.4850 ca         1 R93      -0.007300
      7 C32         -0.2340    -0.2930    -2.4840 c3         1 R93       0.046200
      8 C28          1.9580    -0.1460    -3.6800 ca         1 R93      -0.105000
      9 C27          3.3350    -0.0110    -3.6850 ca         1 R93      -0.074000
     10 C31          3.3430     0.1290    -1.2870 ca         1 R93      -0.078000
     11 C26          4.0280     0.1270    -2.4910 ca         1 R93       0.099100
     12 O25          5.3810     0.2590    -2.5020 os         1 R93      -0.294700
     13 C23          6.1280    -0.8190    -2.1680 cc         1 R93       0.427100
     14 N21          7.4900    -0.8760    -2.2230 na         1 R93       0.270700
     15 C12          7.8660    -2.1390    -1.8020 ca         1 R93      -0.278200
     16 C11          9.0910    -2.7750    -1.6480 ca         1 R93      -0.079000
     17 C10          9.1410    -4.0750    -1.1960 ca         1 R93      -0.023600
     18 Cl1         10.6750    -4.8650    -1.0040 cl         1 R93      -0.016400
     19 N22          5.6510    -1.9570    -1.7370 nd         1 R93      -0.593100
     20 C13          6.6740    -2.8200    -1.4990 ca         1 R93       0.094400
     21 C14          6.7290    -4.1370    -1.0420 ca         1 R93      -0.034000
     22 C7           7.9610    -4.7620    -0.8920 cp         1 R93      -0.033000
     23 C2           8.0240    -6.1620    -0.4070 cp         1 R93      -0.041000
     24 C21          7.3230    -6.5350     0.7400 ca         1 R93      -0.092500
     25 C3           8.7810    -7.1060    -1.1000 ca         1 R93      -0.092500
     26 C4           8.8390    -8.4060    -0.6490 ca         1 R93      -0.085500
     27 C5           8.1430    -8.7790     0.5000 cp         1 R93      -0.022000
     28 C6           7.3820    -7.8350     1.1900 ca         1 R93      -0.085500
     29 C34          8.2060   -10.1780     0.9850 cp         1 R93      -0.065000
     30 C9           7.9710   -11.2350     0.1060 ca         1 R93      -0.064000
     31 C35          8.0300   -12.5350     0.5630 ca         1 R93      -0.129000
     32 C33          8.3220   -12.7960     1.8890 ca         1 R93      -0.069000
     33 C8           8.5570   -11.7570     2.7690 ca         1 R93      -0.177000
     34 C1           8.5070   -10.4450     2.3240 ca         1 R93       0.147100
     35 O23          8.7430    -9.4220     3.1860 oh         1 R93      -0.485100
     36 H1           2.8890    -0.0300     1.1680 hn         1 R93       0.163500
     37 H2           1.7930     0.0060     3.1110 ho         1 R93       0.392000
     38 H3          -0.6840     0.6000    -2.0680 hc         1 R93       0.024367
     39 H4          -0.5840    -0.4340    -3.5000 hc         1 R93       0.024367
     40 H5          -0.5120    -1.1510    -1.8840 hc         1 R93       0.024367
     41 H6           1.4220    -0.2540    -4.6150 ha         1 R93       0.115000
     42 H7           3.8730    -0.0130    -4.6250 ha         1 R93       0.112000
     43 H8           3.8840     0.2370    -0.3550 ha         1 R93       0.109000
     44 H9           8.1040    -0.1040    -2.3890 hn         1 R93       0.131700
     45 H10         10.0080    -2.2460    -1.8780 ha         1 R93       0.112000
     46 H12          5.8160    -4.6700    -0.8060 ha         1 R93       0.122000
     47 H13          6.7320    -5.8020     1.2760 ha         1 R93       0.111500
     48 H14          9.3220    -6.8170    -1.9930 ha         1 R93       0.111500
     49 H15          9.4290    -9.1400    -1.1860 ha         1 R93       0.112000
     50 H16          6.8390    -8.1240     2.0820 ha         1 R93       0.112000
     51 H17          7.7420   -11.0340    -0.9340 ha         1 R93       0.110000
     52 H18          7.8470   -13.3560    -0.1210 ha         1 R93       0.105000
     53 H19          8.3650   -13.8200     2.2410 ha         1 R93       0.102000
     54 H20          8.7870   -11.9670     3.8070 ha         1 R93       0.111000
     55 H21          9.5340    -9.5950     3.6690 ho         1 R93       0.402000
@<TRIPOS>BOND
     1     1     2 2   
     2     2     3 1   
     3     2     5 1   
     4     3     4 1   
     5     3    36 1   
     6     4    37 1   
     7     5     6 ar  
     8     5    10 ar  
     9     6     7 1   
    10     6     8 ar  
    11     7    38 1   
    12     7    39 1   
    13     7    40 1   
    14     8     9 ar  
    15     8    41 1   
    16     9    11 ar  
    17     9    42 1   
    18    10    11 ar  
    19    10    43 1   
    20    11    12 1   
    21    12    13 1   
    22    13    14 1   
    23    13    19 2   
    24    14    15 1   
    25    14    44 1   
    26    15    16 ar  
    27    15    20 ar  
    28    16    17 ar  
    29    16    45 1   
    30    17    18 1   
    31    17    22 ar  
    32    19    20 1   
    33    20    21 ar  
    34    21    22 ar  
    35    21    46 1   
    36    22    23 1   
    37    23    24 ar  
    38    23    25 ar  
    39    24    28 ar  
    40    24    47 1   
    41    25    26 ar  
    42    25    48 1   
    43    26    27 ar  
    44    26    49 1   
    45    27    28 ar  
    46    27    29 1   
    47    28    50 1   
    48    29    30 ar  
    49    29    34 ar  
    50    30    31 ar  
    51    30    51 1   
    52    31    32 ar  
    53    31    52 1   
    54    32    33 ar  
    55    32    53 1   
    56    33    34 ar  
    57    33    54 1   
    58    34    35 1   
    59    35    55 1   
@<TRIPOS>SUBSTRUCTURE
     1 R93         1 TEMP              0 ****  ****    0 ROOT
