@<TRIPOS>MOLECULE
molecule
   55    59     1     0     0
SMALL
bcc


@<TRIPOS>ATOM
      1 O20          0.0000     0.0000     0.0000 o          1 R93      -0.577100
      2 C18          1.2150     0.0000     0.0000 c          1 R93       0.691700
      3 N8           1.8890     0.0000     1.1680 ns         1 R93      -0.469400
      4 O21          1.1800     0.0020     2.3940 oh         1 R93      -0.360100
      5 C30          1.9550    -0.0080    -1.2800 ca         1 R93      -0.138600
      6 C29          1.2660    -0.1460    -2.4850 ca         1 R93      -0.004300
      7 C32         -0.2340    -0.2930    -2.4840 c3         1 R93      -0.048800
      8 C28          1.9580    -0.1460    -3.6800 ca         1 R93      -0.133000
      9 C27          3.3350    -0.0110    -3.6850 ca         1 R93      -0.090000
     10 C31          3.3430     0.1290    -1.2870 ca         1 R93      -0.090000
     11 C26          4.0280     0.1270    -2.4910 ca         1 R93       0.095100
     12 O25          5.3810     0.2590    -2.5020 os         1 R93      -0.312700
     13 C23          6.1280    -0.8190    -2.1680 cc         1 R93       0.627100
     14 N21          7.4900    -0.8760    -2.2230 na         1 R93      -0.259300
     15 C12          7.8660    -2.1390    -1.8020 ca         1 R93      -0.089200
     16 C11          9.0910    -2.7750    -1.6480 ca         1 R93      -0.117000
     17 C10          9.1410    -4.0750    -1.1960 ca         1 R93       0.044400
     18 Cl1         10.6750    -4.8650    -1.0040 cl         1 R93      -0.095400
     19 N22          5.6510    -1.9570    -1.7370 nd         1 R93      -0.659100
     20 C13          6.6740    -2.8200    -1.4990 ca         1 R93       0.117400
     21 C14          6.7290    -4.1370    -1.0420 ca         1 R93      -0.063000
     22 C7           7.9610    -4.7620    -0.8920 cp         1 R93      -0.037000
     23 C2           8.0240    -6.1620    -0.4070 cp         1 R93      -0.044000
     24 C21          7.3230    -6.5350     0.7400 ca         1 R93      -0.111000
     25 C3           8.7810    -7.1060    -1.1000 ca         1 R93      -0.111000
     26 C4           8.8390    -8.4060    -0.6490 ca         1 R93      -0.110500
     27 C5           8.1430    -8.7790     0.5000 cp         1 R93      -0.028000
     28 C6           7.3820    -7.8350     1.1900 ca         1 R93      -0.110500
     29 C34          8.2060   -10.1780     0.9850 cp         1 R93      -0.059000
     30 C9           7.9710   -11.2350     0.1060 ca         1 R93      -0.094000
     31 C35          8.0300   -12.5350     0.5630 ca         1 R93      -0.150000
     32 C33          8.3220   -12.7960     1.8890 ca         1 R93      -0.101000
     33 C8           8.5570   -11.7570     2.7690 ca         1 R93      -0.191000
     34 C1           8.5070   -10.4450     2.3240 ca         1 R93       0.128100
     35 O23          8.7430    -9.4220     3.1860 oh         1 R93      -0.506100
     36 H1           2.8890    -0.0300     1.1680 hn         1 R93       0.323500
     37 H2           1.7930     0.0060     3.1110 ho         1 R93       0.400000
     38 H3          -0.6840     0.6000    -2.0680 hc         1 R93       0.059033
     39 H4          -0.5840    -0.4340    -3.5000 hc         1 R93       0.059033
     40 H5          -0.5120    -1.1510    -1.8840 hc         1 R93       0.059033
     41 H6           1.4220    -0.2540    -4.6150 ha         1 R93       0.147000
     42 H7           3.8730    -0.0130    -4.6250 ha         1 R93       0.146000
     43 H8           3.8840     0.2370    -0.3550 ha         1 R93       0.136000
     44 H9           8.1040    -0.1040    -2.3890 hn         1 R93       0.312700
     45 H10         10.0080    -2.2460    -1.8780 ha         1 R93       0.143000
     46 H12          5.8160    -4.6700    -0.8060 ha         1 R93       0.157000
     47 H13          6.7320    -5.8020     1.2760 ha         1 R93       0.137500
     48 H14          9.3220    -6.8170    -1.9930 ha         1 R93       0.137500
     49 H15          9.4290    -9.1400    -1.1860 ha         1 R93       0.139500
     50 H16          6.8390    -8.1240     2.0820 ha         1 R93       0.139500
     51 H17          7.7420   -11.0340    -0.9340 ha         1 R93       0.140000
     52 H18          7.8470   -13.3560    -0.1210 ha         1 R93       0.133000
     53 H19          8.3650   -13.8200     2.2410 ha         1 R93       0.132000
     54 H20          8.7870   -11.9670     3.8070 ha         1 R93       0.135000
     55 H21          9.5340    -9.5950     3.6690 ho         1 R93       0.421000
@<TRIPOS>BOND
     1     9     8 ar
     2     9    11 ar
     3     8     6 ar
     4    24    28 ar
     5    24    23 ar
     6    30    31 ar
     7    30    29 ar
     8    28    27 ar
     9    31    32 ar
    10    11    12 1
    11    11    10 ar
    12     6     7 1
    13     6     5 ar
    14    12    13 1
    15    13    14 1
    16    13    19 2
    17    14    15 1
    18    19    20 1
    19    15    20 ar
    20    15    16 ar
    21    20    21 ar
    22    16    17 ar
    23    21    22 ar
    24    17    22 ar
    25    17    18 1
    26    22    23 1
    27    23    25 ar
    28    27    29 1
    29    27    26 ar
    30    29    34 ar
    31    32    33 ar
    32     5    10 ar
    33     5     2 1
    34    25    26 ar
    35    34    33 ar
    36    34    35 1
    37     2     3 1
    38     2     1 2
    39     3     4 1
    40     3    36 1
    41     4    37 1
    42     7    38 1
    43     7    39 1
    44     7    40 1
    45     8    41 1
    46     9    42 1
    47    10    43 1
    48    14    44 1
    49    16    45 1
    50    21    46 1
    51    24    47 1
    52    25    48 1
    53    26    49 1
    54    28    50 1
    55    30    51 1
    56    31    52 1
    57    32    53 1
    58    33    54 1
    59    35    55 1
@<TRIPOS>SUBSTRUCTURE
     1 R93         1 TEMP              0 ****  ****    0 ROOT
