@<TRIPOS>MOLECULE
molecule
   75    79     1     0     0
SMALL
bcc


@<TRIPOS>ATOM
      1 O62          0.0000     0.0000     0.0000 o          1 R94      -0.512100
      2 C61          1.2160     0.0000     0.0000 c          1 R94       0.604300
      3 C71          1.9540     0.0000     1.2760 ca         1 R94      -0.163600
      4 C72          2.5560    -1.1780     1.7410 ca         1 R94       0.123100
      5 C73          3.2490    -1.1710     2.9420 ca         1 R94      -0.172000
      6 C74          3.3400    -0.0090     3.6830 ca         1 R94      -0.143000
      7 C75          2.7390     1.1620     3.2320 ca         1 R94       0.055600
      8 N91          2.8370     2.3330     3.9910 nh         1 R94      -0.543000
      9 C92          3.6220     2.0000     5.1830 c3         1 R94       0.138800
     10 C93          3.7670     3.2360     6.0710 c3         1 R94      -0.080400
     11 C94          2.3770     3.6970     6.5240 c3         1 R94      -0.084400
     12 C95          1.5050     3.9330     5.2860 c3         1 R94      -0.080400
     13 C96          1.4790     2.6590     4.4390 c3         1 R94       0.138800
     14 C76          2.0450     1.1700     2.0350 ca         1 R94      -0.085000
     15 O92          2.4680    -2.3200     1.0140 oh         1 R94      -0.507100
     16 C54          1.9550     0.0010    -1.2820 ca         1 R94      -0.143600
     17 C55          1.2620    -0.1130    -2.4880 ca         1 R94      -0.083000
     18 C56          1.9500    -0.1120    -3.6820 ca         1 R94      -0.106000
     19 C53          3.3470     0.1220    -1.2850 ca         1 R94      -0.083000
     20 C52          4.0350     0.1180    -2.4790 ca         1 R94      -0.106000
     21 C51          3.3410     0.0040    -3.6850 ca         1 R94      -0.125600
     22 C42          4.0800     0.0050    -4.9670 c          1 R94       0.667700
     23 O43          3.4760    -0.0950    -6.0160 o          1 R94      -0.600100
     24 N41          5.4230     0.1160    -4.9700 ns         1 R94      -0.585900
     25 C37          6.1560     0.1170    -6.2390 c3         1 R94       0.108700
     26 C36          6.4340    -1.3480    -6.6820 c3         1 R94      -0.085400
     27 C35          6.8910    -1.3670    -8.0660 c3         1 R94      -0.083400
     28 C34          8.1960    -0.5960    -8.2990 c3         1 R94       0.139800
     29 N33          7.8310     0.7750    -8.5660 n7         1 R94      -0.803200
     30 C32          7.9790     1.5550    -7.3210 c3         1 R94       0.136800
     31 C31          7.4700     0.8310    -6.0640 c3         1 R94       0.103700
     32 N23          7.3250     1.8150    -4.9870 ns         1 R94      -0.582900
     33 C21          8.3870     2.1430    -4.2250 c          1 R94       0.668700
     34 O22          9.4660     1.6230    -4.4320 o          1 R94      -0.602100
     35 C14          8.2390     3.1380    -3.1390 ca         1 R94      -0.114600
     36 C13          9.3280     3.4920    -2.3360 ca         1 R94      -0.217300
     37 C12          9.1460     4.4250    -1.3330 ca         1 R94       0.415700
     38 N11          7.9660     4.9760    -1.1280 nb         1 R94      -0.674000
     39 C16          6.9140     4.6700    -1.8600 ca         1 R94       0.415700
     40 C15          7.0090     3.7530    -2.8880 ca         1 R94      -0.217300
     41 H73          3.7170    -2.0800     3.3020 ha         1 R94       0.140000
     42 H74          3.8820    -0.0100     4.6210 ha         1 R94       0.147000
     43 H921         4.6050     1.6580     4.8810 h1         1 R94       0.044450
     44 H922         3.1180     1.2170     5.7380 h1         1 R94       0.044450
     45 H931         4.3660     2.9890     6.9400 hc         1 R94       0.052450
     46 H932         4.2450     4.0300     5.5100 hc         1 R94       0.052450
     47 H941         2.4670     4.6190     7.0850 hc         1 R94       0.043200
     48 H942         1.9270     2.9310     7.1440 hc         1 R94       0.043200
     49 H951         0.4970     4.1800     5.5970 hc         1 R94       0.052450
     50 H952         1.9190     4.7460     4.7030 hc         1 R94       0.052450
     51 H961         0.8440     2.8160     3.5760 h1         1 R94       0.044450
     52 H962         1.0910     1.8410     5.0340 h1         1 R94       0.044450
     53 H76          1.5780     2.0820     1.6850 ha         1 R94       0.153000
     54 H92          2.1710    -3.0230     1.5670 ho         1 R94       0.426000
     55 H55          0.1820    -0.2020    -2.4860 ha         1 R94       0.152500
     56 H56          1.4120    -0.2000    -4.6180 ha         1 R94       0.145000
     57 H53          3.8850     0.2100    -0.3490 ha         1 R94       0.152500
     58 H52          5.1140     0.2090    -2.4810 ha         1 R94       0.145000
     59 H41          5.9240     0.1460    -4.1040 hn         1 R94       0.319500
     60 H37          5.5720     0.6200    -7.0010 h1         1 R94       0.101700
     61 H361         7.1990    -1.7760    -6.0460 hc         1 R94       0.052700
     62 H362         5.5220    -1.9270    -6.5980 hc         1 R94       0.052700
     63 H351         7.0420    -2.3970    -8.3640 hc         1 R94       0.055200
     64 H352         6.1190    -0.9320    -8.6890 hc         1 R94       0.055200
     65 H341         8.7210    -1.0110    -9.1510 h1         1 R94       0.038700
     66 H342         8.8170    -0.6470    -7.4130 h1         1 R94       0.038700
     67 H33          8.4370     1.1500    -9.2680 hn         1 R94       0.357800
     68 H321         7.4290     2.4820    -7.4290 h1         1 R94       0.046200
     69 H322         9.0290     1.7850    -7.1830 h1         1 R94       0.046200
     70 H31          8.2150     0.1020    -5.7680 h1         1 R94       0.082700
     71 H23          6.4500     2.2810    -4.8520 hn         1 R94       0.325500
     72 H13         10.3010     3.0430    -2.4990 ha         1 R94       0.149500
     73 H12          9.9840     4.7060    -0.7060 h4         1 R94       0.030100
     74 H16          5.9640     5.1500    -1.6580 h4         1 R94       0.030100
     75 H15          6.1390     3.5060    -3.4860 ha         1 R94       0.149500
@<TRIPOS>BOND
     1     1     2 2
     2     2     3 1
     3     2    16 1
     4     3     4 ar
     5     3    14 ar
     6     4     5 ar
     7     4    15 1
     8     5     6 ar
     9     5    41 1
    10     6     7 ar
    11     6    42 1
    12     7     8 1
    13     7    14 ar
    14     8     9 1
    15     8    13 1
    16     9    10 1
    17     9    43 1
    18     9    44 1
    19    10    11 1
    20    10    45 1
    21    10    46 1
    22    11    12 1
    23    11    47 1
    24    11    48 1
    25    12    13 1
    26    12    49 1
    27    12    50 1
    28    13    51 1
    29    13    52 1
    30    14    53 1
    31    15    54 1
    32    16    17 ar
    33    16    19 ar
    34    17    18 ar
    35    17    55 1
    36    18    21 ar
    37    18    56 1
    38    19    20 ar
    39    19    57 1
    40    20    21 ar
    41    20    58 1
    42    21    22 1
    43    22    23 2
    44    22    24 1
    45    24    25 1
    46    24    59 1
    47    25    26 1
    48    25    31 1
    49    25    60 1
    50    26    27 1
    51    26    61 1
    52    26    62 1
    53    27    28 1
    54    27    63 1
    55    27    64 1
    56    28    29 1
    57    28    65 1
    58    28    66 1
    59    29    30 1
    60    29    67 1
    61    30    31 1
    62    30    68 1
    63    30    69 1
    64    31    32 1
    65    31    70 1
    66    32    33 1
    67    32    71 1
    68    33    34 2
    69    33    35 1
    70    35    36 ar
    71    35    40 ar
    72    36    37 ar
    73    36    72 1
    74    37    38 ar
    75    37    73 1
    76    38    39 ar
    77    39    40 ar
    78    39    74 1
    79    40    75 1
@<TRIPOS>SUBSTRUCTURE
     1 R94         1 TEMP              0 ****  ****    0 ROOT
