@<TRIPOS>MOLECULE
molecule
   81    85     1     0     0
SMALL
bcc


@<TRIPOS>ATOM
      1 O22          0.0000     0.0000     0.0000 o          1 R96      -0.601100
      2 C21          1.2150     0.0000     0.0000 c          1 R96       0.667700
      3 C14          1.9560     0.0000     1.2830 ca         1 R96      -0.113600
      4 C13          1.2770     0.0000     2.5050 ca         1 R96      -0.217300
      5 C12          2.0080     0.0000     3.6770 ca         1 R96       0.415700
      6 N11          3.3260     0.0000     3.6530 nb         1 R96      -0.674000
      7 C16          4.0050     0.0000     2.5230 ca         1 R96       0.415700
      8 C15          3.3530    -0.0060     1.3050 ca         1 R96      -0.217300
      9 N23          1.8880    -0.0000    -1.1680 ns         1 R96      -0.582900
     10 C31          1.1550     0.0010    -2.4360 c3         1 R96       0.103700
     11 C32          0.8020    -1.4520    -2.7950 c3         1 R96       0.136800
     12 N33          0.3880    -1.6420    -4.1990 n7         1 R96      -0.804200
     13 C34         -0.4770    -0.5500    -4.5780 c3         1 R96       0.139800
     14 C35          0.3900     0.4670    -5.3290 c3         1 R96      -0.083400
     15 C36          1.0380     1.4430    -4.4640 c3         1 R96      -0.085400
     16 C37          1.9880     0.7160    -3.4670 c3         1 R96       0.108700
     17 N41          2.8510     1.6970    -2.8070 ns         1 R96      -0.585900
     18 C42          3.9970     2.0930    -3.3980 c          1 R96       0.667700
     19 O43          4.3120     1.6340    -4.4780 o          1 R96      -0.599100
     20 C51          4.8700     3.0840    -2.7310 ca         1 R96      -0.124600
     21 C52          6.0550     3.4930    -3.3430 ca         1 R96      -0.106000
     22 C53          6.8690     4.4160    -2.7220 ca         1 R96      -0.083000
     23 C56          4.5070     3.6110    -1.4900 ca         1 R96      -0.106000
     24 C55          5.3230     4.5290    -0.8660 ca         1 R96      -0.083000
     25 C54          6.5060     4.9420    -1.4810 ca         1 R96      -0.143600
     26 C61          7.3790     5.9330    -0.8140 c          1 R96       0.604300
     27 O62          8.4580     6.2170    -1.2970 o          1 R96      -0.512100
     28 C71          6.9410     6.5780     0.4360 ca         1 R96      -0.163600
     29 C72          5.9750     7.5960     0.4050 ca         1 R96       0.120100
     30 O92          5.4410     7.9890    -0.7790 oh         1 R96      -0.510100
     31 C73          5.5670     8.1970     1.5860 ca         1 R96      -0.167000
     32 C74          6.1100     7.7980     2.7910 ca         1 R96      -0.145000
     33 C76          7.4900     6.1840     1.6610 ca         1 R96      -0.087000
     34 C75          7.0680     6.7900     2.8320 ca         1 R96       0.057600
     35 N91          7.6110     6.3920     4.0580 nh         1 R96      -0.543000
     36 C92          9.0280     6.7710     4.0340 c3         1 R96       0.143800
     37 C93          9.6930     6.3720     5.3520 c3         1 R96      -0.082400
     38 C94          9.0140     7.1190     6.5050 c3         1 R96      -0.073400
     39 C95          7.5110     6.8300     6.4680 c3         1 R96      -0.066000
     40 C97          7.2700     5.3410     6.7270 c3         1 R96      -0.082600
     41 C98          6.8040     7.6560     7.5440 c3         1 R96      -0.082600
     42 C96          6.9580     7.2050     5.0910 c3         1 R96       0.142800
     43 H13          0.1940     0.0010     2.5320 ha         1 R96       0.149500
     44 H12          1.4900     0.0000     4.6290 h4         1 R96       0.029600
     45 H16          5.0880    -0.0020     2.5510 h4         1 R96       0.029600
     46 H15          3.9180    -0.0060     0.3800 ha         1 R96       0.149500
     47 H23          2.8880    -0.0550    -1.1680 hn         1 R96       0.326500
     48 H31          0.2320     0.5520    -2.3030 h1         1 R96       0.082700
     49 H321         1.6690    -2.0730    -2.6060 h1         1 R96       0.045700
     50 H322        -0.0080    -1.7770    -2.1520 h1         1 R96       0.045700
     51 H33         -0.1080    -2.5060    -4.2870 hn         1 R96       0.358800
     52 H341        -1.2660    -0.9120    -5.2270 h1         1 R96       0.038700
     53 H342        -0.9010    -0.0910    -3.6930 h1         1 R96       0.038700
     54 H351         1.1550    -0.0720    -5.8750 hc         1 R96       0.055200
     55 H352        -0.2370     0.9970    -6.0360 hc         1 R96       0.055200
     56 H361         1.6140     2.1320    -5.0690 hc         1 R96       0.051700
     57 H362         0.2840     1.9870    -3.9080 hc         1 R96       0.051700
     58 H37          2.5930    -0.0040    -4.0050 h1         1 R96       0.101700
     59 H41          2.5680     2.1100    -1.9410 hn         1 R96       0.319500
     60 H52          6.3370     3.0850    -4.3060 ha         1 R96       0.145000
     61 H53          7.7880     4.7350    -3.1980 ha         1 R96       0.153000
     62 H56          3.5890     3.2900    -1.0140 ha         1 R96       0.145000
     63 H55          5.0410     4.9380     0.0970 ha         1 R96       0.153000
     64 H92          5.5580     8.9190    -0.8830 ho         1 R96       0.426000
     65 H73          4.8220     8.9820     1.5630 ha         1 R96       0.140000
     66 H74          5.7850     8.2700     3.7110 ha         1 R96       0.148000
     67 H76          8.2360     5.3990     1.6940 ha         1 R96       0.153000
     68 H921         9.5220     6.2610     3.2150 h1         1 R96       0.045200
     69 H922         9.1110     7.8430     3.9010 h1         1 R96       0.045200
     70 H931         9.5860     5.3050     5.5020 hc         1 R96       0.053200
     71 H932        10.7430     6.6350     5.3210 hc         1 R96       0.053200
     72 H941         9.1800     8.1840     6.3930 hc         1 R96       0.044700
     73 H942         9.4250     6.7790     7.4480 hc         1 R96       0.044700
     74 H971         6.2200     5.1750     6.9340 hc         1 R96       0.038367
     75 H972         7.8610     5.0220     7.5770 hc         1 R96       0.038367
     76 H973         7.5600     4.7710     5.8520 hc         1 R96       0.038367
     77 H981         7.1810     7.3760     8.5210 hc         1 R96       0.038367
     78 H982         6.9930     8.7090     7.3730 hc         1 R96       0.038367
     79 H983         5.7380     7.4690     7.5010 hc         1 R96       0.038367
     80 H961         7.1540     8.2530     4.8990 h1         1 R96       0.045700
     81 H962         5.8910     7.0220     5.0700 h1         1 R96       0.045700
@<TRIPOS>BOND
     1     1     2 2
     2     2     3 1
     3     2     9 1
     4     3     4 ar
     5     3     8 ar
     6     4     5 ar
     7     4    43 1
     8     5     6 ar
     9     5    44 1
    10     6     7 ar
    11     7     8 ar
    12     7    45 1
    13     8    46 1
    14     9    10 1
    15     9    47 1
    16    10    11 1
    17    10    16 1
    18    10    48 1
    19    11    12 1
    20    11    49 1
    21    11    50 1
    22    12    13 1
    23    12    51 1
    24    13    14 1
    25    13    52 1
    26    13    53 1
    27    14    15 1
    28    14    54 1
    29    14    55 1
    30    15    16 1
    31    15    56 1
    32    15    57 1
    33    16    17 1
    34    16    58 1
    35    17    18 1
    36    17    59 1
    37    18    19 2
    38    18    20 1
    39    20    21 ar
    40    20    23 ar
    41    21    22 ar
    42    21    60 1
    43    22    25 ar
    44    22    61 1
    45    23    24 ar
    46    23    62 1
    47    24    25 ar
    48    24    63 1
    49    25    26 1
    50    26    27 2
    51    26    28 1
    52    28    29 ar
    53    28    33 ar
    54    29    30 1
    55    29    31 ar
    56    30    64 1
    57    31    32 ar
    58    31    65 1
    59    32    34 ar
    60    32    66 1
    61    33    34 ar
    62    33    67 1
    63    34    35 1
    64    35    36 1
    65    35    42 1
    66    36    37 1
    67    36    68 1
    68    36    69 1
    69    37    38 1
    70    37    70 1
    71    37    71 1
    72    38    39 1
    73    38    72 1
    74    38    73 1
    75    39    40 1
    76    39    41 1
    77    39    42 1
    78    40    74 1
    79    40    75 1
    80    40    76 1
    81    41    77 1
    82    41    78 1
    83    41    79 1
    84    42    80 1
    85    42    81 1
@<TRIPOS>SUBSTRUCTURE
     1 R96         1 TEMP              0 ****  ****    0 ROOT
