@<TRIPOS>MOLECULE
R9B
   62    66     1     0     0
SMALL
bcc


@<TRIPOS>ATOM
      1 C27          0.0000     0.0000     0.0000 c          1 R9B       0.599700
      2 O28          1.2160     0.0000     0.0000 o          1 R9B      -0.645100
      3 C15         -0.7390     0.0000     1.2790 ca         1 R9B      -0.202600
      4 C16         -2.1400     0.0010     1.2780 ca         1 R9B      -0.026000
      5 C17         -2.8360    -0.0050     2.4510 ca         1 R9B      -0.168000
      6 C20         -2.1590    -0.0110     3.6690 ca         1 R9B      -0.039400
      7 C19         -0.7510    -0.0110     3.6830 ca         1 R9B      -0.162800
      8 C18         -0.0420    -0.0060     2.4840 ca         1 R9B       0.046000
      9 C24         -0.0540    -0.0190     4.9770 cc         1 R9B       0.229900
     10 C23         -0.8060    -0.0230     6.1180 cd         1 R9B      -0.302200
     11 C22         -2.2070    -0.0220     6.0390 c          1 R9B       0.607700
     12 O26         -2.8590    -0.0260     7.0690 o          1 R9B      -0.687500
     13 N21         -2.8510    -0.0170     4.8590 ns         1 R9B       0.041900
     14 O25          1.2970    -0.0190     5.0380 oh         1 R9B      -0.483100
     15 N29         -0.6740     0.0010    -1.1670 ns         1 R9B      -0.181900
     16 C30          0.0590     0.0000    -2.4360 c3         1 R9B      -0.048300
     17 C31         -0.8050     0.6010    -3.5150 c          1 R9B       0.566100
     18 O32         -1.9230     0.9900    -3.2500 o          1 R9B      -0.652100
     19 C33          0.4230    -1.4370    -2.8140 c3         1 R9B       0.021900
     20 C34          1.3850    -1.9950    -1.7990 ca         1 R9B      -0.085300
     21 C35          0.9050    -2.6560    -0.6830 ca         1 R9B      -0.090000
     22 C39          2.7470    -1.8530    -1.9860 ca         1 R9B      -0.090000
     23 C36          1.7880    -3.1700     0.2480 ca         1 R9B      -0.088500
     24 C38          3.6300    -2.3620    -1.0510 ca         1 R9B      -0.088500
     25 C37          3.1500    -3.0220     0.0650 ca         1 R9B      -0.093000
     26 C1           2.0580     3.3720    -9.0160 ca         1 R9B      -0.139000
     27 C2           2.2470     4.4180    -8.1390 ca         1 R9B      -0.044000
     28 C3           1.5710     4.4570    -6.9260 ca         1 R9B      -0.068600
     29 C4           0.7000     3.4470    -6.5810 ca         1 R9B      -0.052000
     30 Cl5          1.8280     5.7840    -5.8380 cl         1 R9B      -0.009400
     31 C6           0.4970     2.3790    -7.4610 ca         1 R9B      -0.110800
     32 C7           1.1820     2.3420    -8.6890 ca         1 R9B      -0.070400
     33 N8           0.9780     1.2860    -9.5520 ns         1 R9B       0.047900
     34 C9           0.1320     0.2900    -9.2380 c          1 R9B       0.586700
     35 C10         -0.5810     0.2800    -8.0190 cc         1 R9B      -0.181200
     36 C11         -0.4230     1.2890    -7.1280 cd         1 R9B      -0.036400
     37 C13         -1.1760     1.2900    -5.8220 c3         1 R9B       0.098200
     38 N14         -0.3360     0.7050    -4.7740 ns         1 R9B      -0.187900
     39 H16         -2.6760     0.0070     0.3370 ha         1 R9B       0.109000
     40 H18          1.0310     0.1450     2.4900 ha         1 R9B       0.140000
     41 H17         -3.9190    -0.0050     2.4360 ha         1 R9B       0.117000
     42 H21         -3.8510    -0.0170     4.8460 hn         1 R9B       0.178500
     43 H23         -0.3190    -0.0290     7.0860 ha         1 R9B       0.146000
     44 H25          1.5930     0.7750     5.4510 ho         1 R9B       0.416000
     45 H29         -1.6740     0.0320    -1.1670 hn         1 R9B       0.201500
     46 H30          0.9640     0.5860    -2.3310 h1         1 R9B       0.071700
     47 H331        -0.4740    -2.0440    -2.8340 hc         1 R9B       0.023200
     48 H332         0.8860    -1.4460    -3.7940 hc         1 R9B       0.023200
     49 H35         -0.1620    -2.7720    -0.5390 ha         1 R9B       0.098000
     50 H39          3.1230    -1.3360    -2.8600 ha         1 R9B       0.098000
     51 H36          1.4130    -3.6870     1.1230 ha         1 R9B       0.100000
     52 H38          4.6980    -2.2480    -1.1960 ha         1 R9B       0.100000
     53 H37          3.8420    -3.4220     0.7960 ha         1 R9B       0.100000
     54 H1           2.5910     3.3520    -9.9590 ha         1 R9B       0.118000
     55 H2           2.9300     5.2180    -8.3980 ha         1 R9B       0.117000
     56 H4           0.1740     3.4810    -5.6340 ha         1 R9B       0.127000
     57 H8           1.4670     1.2610   -10.4250 hn         1 R9B       0.179500
     58 H10         -1.2560    -0.5370    -7.7950 ha         1 R9B       0.141000
     59 H131        -2.0810     0.7040    -5.9270 h1         1 R9B       0.038700
     60 H132        -1.4320     2.3070    -5.5530 h1         1 R9B       0.038700
     61 H14          0.5940     0.4040    -4.9870 hn         1 R9B       0.185500
     62 O12         -0.0260    -0.6270   -10.0240 o          1 R9B      -0.676500
@<TRIPOS>BOND
     1     1     2 2   
     2     1     3 1   
     3     1    15 1   
     4     3     4 ar  
     5     3     8 ar  
     6     4     5 ar  
     7     4    39 1   
     8     5     6 ar  
     9     5    41 1   
    10     6     7 ar  
    11     6    13 1   
    12     7     8 ar  
    13     7     9 1   
    14     8    40 1   
    15     9    10 2   
    16     9    14 1   
    17    10    11 1   
    18    10    43 1   
    19    11    12 2   
    20    11    13 1   
    21    13    42 1   
    22    14    44 1   
    23    15    16 1   
    24    15    45 1   
    25    16    17 1   
    26    16    19 1   
    27    16    46 1   
    28    17    18 2   
    29    17    38 1   
    30    19    20 1   
    31    19    47 1   
    32    19    48 1   
    33    20    21 ar  
    34    20    22 ar  
    35    21    23 ar  
    36    21    49 1   
    37    22    24 ar  
    38    22    50 1   
    39    23    25 ar  
    40    23    51 1   
    41    24    25 ar  
    42    24    52 1   
    43    25    53 1   
    44    26    27 ar  
    45    26    32 ar  
    46    26    54 1   
    47    27    28 ar  
    48    27    55 1   
    49    28    29 ar  
    50    28    30 1   
    51    29    31 ar  
    52    29    56 1   
    53    31    32 ar  
    54    31    36 1   
    55    32    33 1   
    56    33    34 1   
    57    33    57 1   
    58    34    35 1   
    59    34    62 2   
    60    35    36 2   
    61    35    58 1   
    62    36    37 1   
    63    37    38 1   
    64    37    59 1   
    65    37    60 1   
    66    38    61 1   
@<TRIPOS>SUBSTRUCTURE
     1 R9B         1 TEMP              0 ****  ****    0 ROOT
