@<TRIPOS>MOLECULE
molecule
   62    66     1     0     0
SMALL
bcc


@<TRIPOS>ATOM
      1 C27          0.0000     0.0000     0.0000 c          1 R9B       0.678700
      2 O28          1.2160     0.0000     0.0000 o          1 R9B      -0.599100
      3 C15         -0.7390     0.0000     1.2790 ca         1 R9B      -0.190600
      4 C16         -2.1400     0.0010     1.2780 ca         1 R9B      -0.050000
      5 C17         -2.8360    -0.0050     2.4510 ca         1 R9B      -0.195000
      6 C20         -2.1590    -0.0110     3.6690 ca         1 R9B       0.119600
      7 C19         -0.7510    -0.0110     3.6830 ca         1 R9B      -0.159800
      8 C18         -0.0420    -0.0060     2.4840 ca         1 R9B       0.010000
      9 C24         -0.0540    -0.0190     4.9770 cc         1 R9B       0.206900
     10 C23         -0.8060    -0.0230     6.1180 cd         1 R9B      -0.305200
     11 C22         -2.2070    -0.0220     6.0390 c          1 R9B       0.705700
     12 O26         -2.8590    -0.0260     7.0690 o          1 R9B      -0.639500
     13 N21         -2.8510    -0.0170     4.8590 ns         1 R9B      -0.429100
     14 O25          1.2970    -0.0190     5.0380 oh         1 R9B      -0.504100
     15 N29         -0.6740     0.0010    -1.1670 ns         1 R9B      -0.570900
     16 C30          0.0590     0.0000    -2.4360 c3         1 R9B       0.051700
     17 C31         -0.8050     0.6010    -3.5150 c          1 R9B       0.651100
     18 O32         -1.9230     0.9900    -3.2500 o          1 R9B      -0.611100
     19 C33          0.4230    -1.4370    -2.8140 c3         1 R9B      -0.045100
     20 C34          1.3850    -1.9950    -1.7990 ca         1 R9B      -0.075300
     21 C35          0.9050    -2.6560    -0.6830 ca         1 R9B      -0.114500
     22 C39          2.7470    -1.8530    -1.9860 ca         1 R9B      -0.114500
     23 C36          1.7880    -3.1700     0.2480 ca         1 R9B      -0.118000
     24 C38          3.6300    -2.3620    -1.0510 ca         1 R9B      -0.118000
     25 C37          3.1500    -3.0220     0.0650 ca         1 R9B      -0.121000
     26 C1           2.0580     3.3720    -9.0160 ca         1 R9B      -0.173000
     27 C2           2.2470     4.4180    -8.1390 ca         1 R9B      -0.070000
     28 C3           1.5710     4.4570    -6.9260 ca         1 R9B      -0.006600
     29 C4           0.7000     3.4470    -6.5810 ca         1 R9B      -0.069000
     30 Cl5          1.8280     5.7840    -5.8380 cl         1 R9B      -0.095400
     31 C6           0.4970     2.3790    -7.4610 ca         1 R9B      -0.121800
     32 C7           1.1820     2.3420    -8.6890 ca         1 R9B       0.090600
     33 N8           0.9780     1.2860    -9.5520 ns         1 R9B      -0.426100
     34 C9           0.1320     0.2900    -9.2380 c          1 R9B       0.691700
     35 C10         -0.5810     0.2800    -8.0190 cc         1 R9B      -0.209200
     36 C11         -0.4230     1.2890    -7.1280 cd         1 R9B      -0.028400
     37 C13         -1.1760     1.2900    -5.8220 c3         1 R9B       0.151200
     38 N14         -0.3360     0.7050    -4.7740 ns         1 R9B      -0.581900
     39 H16         -2.6760     0.0070     0.3370 ha         1 R9B       0.138000
     40 H18          1.0310     0.1450     2.4900 ha         1 R9B       0.176000
     41 H17         -3.9190    -0.0050     2.4360 ha         1 R9B       0.143000
     42 H21         -3.8510    -0.0170     4.8460 hn         1 R9B       0.341500
     43 H23         -0.3190    -0.0290     7.0860 ha         1 R9B       0.173000
     44 H25          1.5930     0.7750     5.4510 ho         1 R9B       0.437000
     45 H29         -1.6740     0.0320    -1.1670 hn         1 R9B       0.334500
     46 H30          0.9640     0.5860    -2.3310 h1         1 R9B       0.099700
     47 H331        -0.4740    -2.0440    -2.8340 hc         1 R9B       0.054700
     48 H332         0.8860    -1.4460    -3.7940 hc         1 R9B       0.054700
     49 H35         -0.1620    -2.7720    -0.5390 ha         1 R9B       0.122500
     50 H39          3.1230    -1.3360    -2.8600 ha         1 R9B       0.122500
     51 H36          1.4130    -3.6870     1.1230 ha         1 R9B       0.127500
     52 H38          4.6980    -2.2480    -1.1960 ha         1 R9B       0.127500
     53 H37          3.8420    -3.4220     0.7960 ha         1 R9B       0.127000
     54 H1           2.5910     3.3520    -9.9590 ha         1 R9B       0.146000
     55 H2           2.9300     5.2180    -8.3980 ha         1 R9B       0.152000
     56 H4           0.1740     3.4810    -5.6340 ha         1 R9B       0.158000
     57 H8           1.4670     1.2610   -10.4250 hn         1 R9B       0.343500
     58 H10         -1.2560    -0.5370    -7.7950 ha         1 R9B       0.172000
     59 H131        -2.0810     0.7040    -5.9270 h1         1 R9B       0.069200
     60 H132        -1.4320     2.3070    -5.5530 h1         1 R9B       0.069200
     61 H14          0.5940     0.4040    -4.9870 hn         1 R9B       0.324500
     62 O12         -0.0260    -0.6270   -10.0240 o          1 R9B      -0.631500
@<TRIPOS>BOND
     1    26    27 ar
     2    26    32 ar
     3    27    28 ar
     4    28    29 ar
     5    28    30 1
     6    29    31 ar
     7    31    32 ar
     8    31    36 1
     9    32    33 1
    10    33    34 1
    11    34    35 1
    12    34    62 2
    13    35    36 2
    14    36    37 1
    15    37    38 1
    16    38    17 1
    17     3     4 ar
    18     3     8 ar
    19     3     1 1
    20     4     5 ar
    21     5     6 ar
    22     8     7 ar
    23     7     6 ar
    24     7     9 1
    25     6    13 1
    26    13    11 1
    27    11    10 1
    28    11    12 2
    29    10     9 2
    30     9    14 1
    31     1     2 2
    32     1    15 1
    33    15    16 1
    34    16    17 1
    35    16    19 1
    36    17    18 2
    37    19    20 1
    38    20    21 ar
    39    20    22 ar
    40    21    23 ar
    41    23    25 ar
    42    25    24 ar
    43    24    22 ar
    44    26    54 1
    45    27    55 1
    46    29    56 1
    47    33    57 1
    48    35    58 1
    49    37    59 1
    50    37    60 1
    51    38    61 1
    52     4    39 1
    53     8    40 1
    54     5    41 1
    55    13    42 1
    56    10    43 1
    57    14    44 1
    58    15    45 1
    59    16    46 1
    60    19    47 1
    61    19    48 1
    62    21    49 1
    63    22    50 1
    64    23    51 1
    65    25    53 1
    66    24    52 1
@<TRIPOS>SUBSTRUCTURE
     1 R9B         1 TEMP              0 ****  ****    0 ROOT
