@<TRIPOS>MOLECULE
R9P
   50    54     1     0     0
SMALL
bcc


@<TRIPOS>ATOM
      1 C13         0.0040    0.6090   -0.4940 c3        1 R9P     -0.076900
      2 C14         1.4970    0.2890   -0.4590 c3        1 R9P      0.164300
      3 N3          1.9150   -0.3380    0.7800 n3        1 R9P     -0.820200
      4 C15         1.5130    0.3910    1.9670 c3        1 R9P      0.164300
      5 C16         0.0200    0.7160    1.9950 c3        1 R9P     -0.076900
      6 C12        -0.4030    1.4310    0.7210 c3        1 R9P     -0.077700
      7 C11        -1.9210    1.6530    0.6790 c3        1 R9P      0.198800
      8 N2         -2.3860    2.6400    1.6220 nh        1 R9P     -0.745600
      9 C10        -3.7430    2.7510    1.9010 ca        1 R9P      0.203600
     10 C17        -4.1660    3.4570    3.0560 ca        1 R9P     -0.212000
     11 C18        -5.5210    3.6580    3.3040 ca        1 R9P      0.106400
     12 CL1        -5.9690    4.5010    4.7080 cl        1 R9P     -0.065400
     13 C9         -4.7340    2.2390    1.0260 ca        1 R9P     -0.204000
     14 C8         -6.0790    2.4460    1.2910 ca        1 R9P     -0.054000
     15 C7         -6.4900    3.1540    2.4250 ca        1 R9P     -0.210900
     16 C6         -7.9420    3.3720    2.6560 cc        1 R9P      0.545500
     17 N4         -8.4250    4.6170    2.6630 nd        1 R9P     -0.564300
     18 C19        -9.7830    4.7180    2.8790 cd        1 R9P      0.175400
     19 C20       -10.6570    5.8790    2.9620 ca        1 R9P     -0.101800
     20 C21       -10.4800    7.2540    2.8630 ca        1 R9P     -0.026000
     21 C22       -11.6050    8.0710    3.0040 ca        1 R9P     -0.057900
     22 BR1       -11.4130    9.9310    2.8790 br        1 R9P     -0.081100
     23 C1        -12.8820    7.5300    3.2390 ca        1 R9P     -0.072000
     24 C2        -13.0860    6.1560    3.3420 ca        1 R9P     -0.130000
     25 C3        -11.9640    5.3450    3.2010 ca        1 R9P      0.093100
     26 O1        -11.9530    3.9470    3.2700 os        1 R9P     -0.142200
     27 C4        -10.6140    3.5980    3.0700 cc        1 R9P     -0.107100
     28 C5        -10.1010    2.2410    3.0600 c         1 R9P      0.728700
     29 O2        -10.7270    1.1820    3.2140 o         1 R9P     -0.601500
     30 N1         -8.7040    2.2090    2.8370 n         1 R9P     -0.475400
     31 H131       -0.2170    1.1790   -1.4330 hc        1 R9P      0.049200
     32 H132       -0.5880   -0.3430   -0.5200 hc        1 R9P      0.049200
     33 H141        2.0650    1.2460   -0.6610 h1        1 R9P      0.030450
     34 H142        1.7350   -0.4300   -1.2930 h1        1 R9P      0.030450
     35 H12         0.1240    2.4250    0.6710 hc        1 R9P      0.060700
     36 H3          2.9090   -0.4700    0.7790 hn        1 R9P      0.366800
     37 H151        1.7600   -0.2570    2.8550 h1        1 R9P      0.030450
     38 H152        2.0840    1.3600    2.0830 h1        1 R9P      0.030450
     39 H161       -0.1800    1.3570    2.8910 hc        1 R9P      0.049200
     40 H162       -0.5710   -0.2300    2.1100 hc        1 R9P      0.049200
     41 H111       -2.2020    2.0110   -0.3540 h1        1 R9P      0.045200
     42 H112       -2.4350    0.6610    0.8470 h1        1 R9P      0.045200
     43 H2         -1.7750    2.8250    2.3880 hn        1 R9P      0.416800
     44 H17        -3.4220    3.8620    3.7600 ha        1 R9P      0.152000
     45 H9         -4.4460    1.6840    0.1200 ha        1 R9P      0.145000
     46 H8         -6.8350    2.0550    0.5900 ha        1 R9P      0.144000
     47 H1         -8.2480    1.3230    2.8300 hn        1 R9P      0.343500
     48 H21        -9.4780    7.6720    2.6800 ha        1 R9P      0.169000
     49 HA        -13.7490    8.2040    3.3460 ha        1 R9P      0.153000
     50 HB        -14.0810    5.7300    3.5250 ha        1 R9P      0.162000
@<TRIPOS>BOND
     1    1    2 1
     2    1    6 1
     3    1   31 1
     4    1   32 1
     5    2    3 1
     6    2   33 1
     7    2   34 1
     8    3    4 1
     9    3   36 1
    10    4    5 1
    11    4   37 1
    12    4   38 1
    13    5    6 1
    14    5   39 1
    15    5   40 1
    16    6    7 1
    17    6   35 1
    18    7    8 1
    19    7   41 1
    20    7   42 1
    21    8    9 1
    22    8   43 1
    23    9   10 ar
    24    9   13 ar
    25   10   11 ar
    26   10   44 1
    27   11   12 1
    28   11   15 ar
    29   13   14 ar
    30   13   45 1
    31   14   15 ar
    32   14   46 1
    33   15   16 1
    34   16   17 2
    35   16   30 1
    36   17   18 1
    37   18   19 1
    38   18   27 2
    39   19   20 ar
    40   19   25 ar
    41   20   21 ar
    42   20   48 1
    43   21   22 1
    44   21   23 ar
    45   23   24 ar
    46   23   49 1
    47   24   25 ar
    48   24   50 1
    49   25   26 1
    50   26   27 1
    51   27   28 1
    52   28   29 2
    53   28   30 1
    54   30   47 1
@<TRIPOS>SUBSTRUCTURE
     1 R9P         1 TEMP              0 ****  ****    0 ROOT
