@<TRIPOS>MOLECULE
R9T
   50    52     1     0     0
SMALL
bcc


@<TRIPOS>ATOM
      1 O19          0.0000     0.0000     0.0000 os         1 R9T      -0.292900
      2 O18          0.3350     1.1970    -2.4630 os         1 R9T      -0.293900
      3 O22          9.0180    -3.1080     2.5090 os         1 R9T      -0.293900
      4 O23          8.6760    -2.3820     5.1440 os         1 R9T      -0.292900
      5 N10          6.0470     0.0000     0.0000 n7         1 R9T      -0.586200
      6 C9           4.8000     0.0000     0.7710 c3         1 R9T       0.190800
      7 C8           3.6290     0.3290    -0.1180 ca         1 R9T      -0.077300
      8 C3           3.7960     0.9230    -1.3500 ca         1 R9T      -0.064300
      9 C2           5.1640     1.2670    -1.8830 c3         1 R9T       0.039900
     10 C1           6.1850     1.2620    -0.7440 c3         1 R9T       0.145800
     11 C11          4.5900    -1.3830     1.3910 c3         1 R9T       0.028900
     12 C7           2.3530     0.0190     0.3330 ca         1 R9T      -0.185000
     13 C12          5.6820    -1.6560     2.3930 ca         1 R9T      -0.096300
     14 C4           2.6900     1.2140    -2.1340 ca         1 R9T      -0.182000
     15 C6           1.2470     0.3060    -0.4460 ca         1 R9T       0.118100
     16 C5           1.4160     0.9090    -1.6890 ca         1 R9T       0.121100
     17 C13          6.8550    -2.2640     1.9880 ca         1 R9T      -0.174000
     18 C17          5.5110    -1.2910     3.7160 ca         1 R9T      -0.101000
     19 C14          7.8630    -2.5100     2.9070 ca         1 R9T       0.119100
     20 C16          6.5100    -1.5380     4.6390 ca         1 R9T      -0.176000
     21 C15          7.6910    -2.1430     4.2380 ca         1 R9T       0.115100
     22 C21         -0.0960    -0.6170     1.2860 c3         1 R9T       0.240700
     23 C20          0.5870     1.8160    -3.7250 c3         1 R9T       0.241700
     24 C24          9.1240    -3.4570     1.1270 c3         1 R9T       0.239700
     25 C25          8.4290    -1.9780     6.4920 c3         1 R9T       0.241700
     26 H1           6.8240    -0.1070     0.6220 hn         1 R9T       0.264800
     27 H3           4.8690     0.7420     1.5570 h1         1 R9T       0.013700
     28 H4           5.4520     0.5340    -2.6260 hc         1 R9T       0.022700
     29 H5           5.1350     2.2520    -2.3340 hc         1 R9T       0.022700
     30 H6           7.1850     1.3350    -1.1540 h1         1 R9T       0.007700
     31 H7           5.9940     2.0980    -0.0820 h1         1 R9T       0.007700
     32 H8           4.6190    -2.1360     0.6130 hc         1 R9T       0.030700
     33 H9           3.6280    -1.4140     1.8880 hc         1 R9T       0.030700
     34 H10          2.2230    -0.4450     1.3030 ha         1 R9T       0.130000
     35 H11          2.8240     1.6820    -3.1020 ha         1 R9T       0.124000
     36 H12          6.9660    -2.5930     0.9620 ha         1 R9T       0.136000
     37 H13          4.5890    -0.8190     4.0320 ha         1 R9T       0.105000
     38 H14          6.3730    -1.2520     5.6750 ha         1 R9T       0.121000
     39 H15          0.4470    -1.5550     1.2780 h1         1 R9T      -0.003967
     40 H16         -1.1370    -0.8050     1.5190 h1         1 R9T      -0.003967
     41 H17          0.3290     0.0400     2.0350 h1         1 R9T      -0.003967
     42 H18          1.2110     1.1660    -4.3270 h1         1 R9T      -0.003633
     43 H19          1.0940     2.7610    -3.5700 h1         1 R9T      -0.003633
     44 H20         -0.3520     1.9890    -4.2360 h1         1 R9T      -0.003633
     45 H21          8.3170    -4.1280     0.8610 h1         1 R9T      -0.002300
     46 H22         10.0750    -3.9470     0.9510 h1         1 R9T      -0.002300
     47 H23          9.0630    -2.5600     0.5220 h1         1 R9T      -0.002300
     48 H24          8.2580    -0.9090     6.5230 h1         1 R9T      -0.003633
     49 H25          7.5560    -2.4950     6.8700 h1         1 R9T      -0.003633
     50 H26          9.2880    -2.2250     7.1050 h1         1 R9T      -0.003633
@<TRIPOS>BOND
     1     1    15 1   
     2     1    22 1   
     3     2    16 1   
     4     2    23 1   
     5     3    19 1   
     6     3    24 1   
     7     4    21 1   
     8     4    25 1   
     9     5     6 1   
    10     5    10 1   
    11     5    26 1   
    12     6     7 1   
    13     6    11 1   
    14     6    27 1   
    15     7     8 ar  
    16     7    12 ar  
    17     8     9 1   
    18     8    14 ar  
    19     9    10 1   
    20     9    28 1   
    21     9    29 1   
    22    10    30 1   
    23    10    31 1   
    24    11    13 1   
    25    11    32 1   
    26    11    33 1   
    27    12    15 ar  
    28    12    34 1   
    29    13    17 ar  
    30    13    18 ar  
    31    14    16 ar  
    32    14    35 1   
    33    15    16 ar  
    34    17    19 ar  
    35    17    36 1   
    36    18    20 ar  
    37    18    37 1   
    38    19    21 ar  
    39    20    21 ar  
    40    20    38 1   
    41    22    39 1   
    42    22    40 1   
    43    22    41 1   
    44    23    42 1   
    45    23    43 1   
    46    23    44 1   
    47    24    45 1   
    48    24    46 1   
    49    24    47 1   
    50    25    48 1   
    51    25    49 1   
    52    25    50 1   
@<TRIPOS>SUBSTRUCTURE
     1 R9T         1 TEMP              0 ****  ****    0 ROOT
