@<TRIPOS>MOLECULE
molecule
   43    45     1     0     0
SMALL
bcc


@<TRIPOS>ATOM
      1 OAW          0.0000     0.0000     0.0000 o          1 RA0      -0.855800
      2 CAV          1.3420     0.0000     0.0000 c          1 RA0       0.890600
      3 OAX          1.9470     0.0000     1.0460 o          1 RA0      -0.855800
      4 CAU          2.0950    -0.0010    -1.3060 c3         1 RA0      -0.177400
      5 CAT          3.5990    -0.0010    -1.0260 c3         1 RA0      -0.029100
      6 CAR          4.3530    -0.0020    -2.3310 ca         1 RA0      -0.015300
      7 CAS          4.6980     1.1930    -2.9300 ca         1 RA0      -0.187000
      8 CAQ          4.7030    -1.2020    -2.9260 ca         1 RA0      -0.175000
      9 CAP          5.3940    -1.2070    -4.1240 ca         1 RA0      -0.100000
     10 CAO          5.7390    -0.0140    -4.7290 ca         1 RA0      -0.224000
     11 CAL          5.3930     1.1910    -4.1320 ca         1 RA0       0.196600
     12 NAK          5.7440     2.4000    -4.7400 nh         1 RA0      -0.730700
     13 CAM          6.5780     2.3990    -5.9450 c3         1 RA0       0.247800
     14 CAN          5.6840     2.3290    -7.1840 c3         1 RA0      -0.120100
     15 CAI          5.3020     3.6010    -4.2030 ca         1 RA0       0.688200
     16 NAJ          4.1060     4.0490    -4.5290 nb         1 RA0      -0.681000
     17 CAF          3.6410     5.2020    -4.0350 ca         1 RA0       0.431600
     18 CAA          2.3650     5.6750    -4.3860 ca         1 RA0      -0.154300
     19 CAB          1.9150     6.8510    -3.8680 ca         1 RA0      -0.124000
     20 CAC          2.6990     7.5980    -2.9930 ca         1 RA0      -0.130000
     21 CAD          3.9410     7.1710    -2.6300 ca         1 RA0      -0.111000
     22 CAE          4.4370     5.9620    -3.1450 ca         1 RA0      -0.158300
     23 CAG          5.7170     5.4880    -2.7920 ca         1 RA0      -0.083000
     24 CAH          6.1350     4.3050    -3.3230 ca         1 RA0      -0.245300
     25 H2           1.8340     0.8830    -1.8740 hc         1 RA0       0.034200
     26 H3           1.8330    -0.8860    -1.8730 hc         1 RA0       0.034200
     27 H4           3.8610    -0.8860    -0.4570 hc         1 RA0       0.055200
     28 H5           3.8610     0.8830    -0.4580 hc         1 RA0       0.055200
     29 H6           4.4270     2.1310    -2.4620 ha         1 RA0       0.140000
     30 H7           4.4340    -2.1380    -2.4530 ha         1 RA0       0.131000
     31 H8           5.6650    -2.1470    -4.5880 ha         1 RA0       0.113000
     32 H9           6.2800    -0.0190    -5.6680 ha         1 RA0       0.115000
     33 H10          7.2380     1.5400    -5.9270 h1         1 RA0       0.043700
     34 H11          7.1690     3.3070    -5.9760 h1         1 RA0       0.043700
     35 H12          6.2410     1.8980    -8.0070 hc         1 RA0       0.041367
     36 H13          4.8190     1.7130    -6.9710 hc         1 RA0       0.041367
     37 H14          5.3590     3.3280    -7.4520 hc         1 RA0       0.041367
     38 H15          1.7420     5.1070    -5.0650 ha         1 RA0       0.152000
     39 H16          0.9310     7.2120    -4.1410 ha         1 RA0       0.129000
     40 H17          2.3170     8.5300    -2.5950 ha         1 RA0       0.124000
     41 H18          4.5420     7.7600    -1.9480 ha         1 RA0       0.127000
     42 H19          6.3480     6.0450    -2.1100 ha         1 RA0       0.136000
     43 H20          7.1240     3.9260    -3.0930 ha         1 RA0       0.143000
@<TRIPOS>BOND
     1     3     2 1
     2     2     4 1
     3     2     1 1
     4     4     5 1
     5     8     9 ar
     6     8     6 ar
     7     9    10 ar
     8     5     6 1
     9     6     7 ar
    10    10    11 ar
    11     7    11 ar
    12    11    12 1
    13    14    13 1
    14    12    13 1
    15    12    15 1
    16    15    16 ar
    17    15    24 ar
    18    16    17 ar
    19    24    23 ar
    20    17    18 ar
    21    17    22 ar
    22    23    22 ar
    23    18    19 ar
    24    22    21 ar
    25    19    20 ar
    26    21    20 ar
    27     4    25 1
    28     4    26 1
    29     5    27 1
    30     5    28 1
    31     7    29 1
    32     8    30 1
    33     9    31 1
    34    10    32 1
    35    13    33 1
    36    13    34 1
    37    14    35 1
    38    14    36 1
    39    14    37 1
    40    18    38 1
    41    19    39 1
    42    20    40 1
    43    21    41 1
    44    23    42 1
    45    24    43 1
@<TRIPOS>SUBSTRUCTURE
     1 RA0         1 TEMP              0 ****  ****    0 ROOT
