@<TRIPOS>MOLECULE
RA1
   34    35     1     0     0
SMALL
bcc


@<TRIPOS>ATOM
      1 Cl           0.0000     0.0000     0.0000 cl         1 RA1       0.083600
      2 C10          1.7360     0.0000     0.0000 ca         1 RA1      -0.016600
      3 C9           2.4280     0.0000     1.1940 ca         1 RA1      -0.015000
      4 C8           3.8110    -0.0000     1.1950 ca         1 RA1      -0.398200
      5 N2           4.5470    -0.0010     2.4800 no         1 RA1       1.035200
      6 O4           5.7650    -0.0010     2.4840 o          1 RA1      -0.429500
      7 O3           3.9350    -0.0010     3.5320 o          1 RA1      -0.429500
      8 C7           4.5110    -0.0010     0.0010 ca         1 RA1      -0.019000
      9 C6           3.8320     0.0000    -1.2000 ca         1 RA1      -0.090000
     10 C5           2.4360    -0.0050    -1.2090 ca         1 RA1      -0.132600
     11 C4           1.7030    -0.0050    -2.4920 c          1 RA1       0.591700
     12 O2           0.4870    -0.0100    -2.4980 o          1 RA1      -0.596100
     13 N1           2.3820     0.0010    -3.6570 ns         1 RA1      -0.039100
     14 C3           1.6920    -0.1110    -4.8690 ca         1 RA1       0.024600
     15 C2           2.1660     0.5400    -6.0010 ca         1 RA1      -0.141000
     16 C1           1.4830     0.4280    -7.1960 ca         1 RA1       0.039000
     17 C11          0.5360    -0.8760    -4.9430 ca         1 RA1      -0.141000
     18 C12         -0.1410    -0.9850    -6.1420 ca         1 RA1       0.039000
     19 C            0.3290    -0.3300    -7.2660 ca         1 RA1      -0.256500
     20 S           -0.5400    -0.4690    -8.7920 sy         1 RA1       0.934200
     21 O           -1.8830    -0.7970    -8.4610 o          1 RA1      -0.495800
     22 O1          -0.1850     0.6720    -9.5610 o          1 RA1      -0.495800
     23 N            0.0790    -1.7820    -9.5900 nz         1 RA1      -0.132500
     24 H1           1.8870     0.0000     2.1330 ha         1 RA1       0.154000
     25 H2           5.5940     0.0010     0.0090 ha         1 RA1       0.143000
     26 H3           4.3810    -0.0020    -2.1330 ha         1 RA1       0.107000
     27 H4           3.3640     0.1950    -3.6590 hn         1 RA1       0.190500
     28 H5           3.0700     1.1340    -5.9460 ha         1 RA1       0.148000
     29 H6           1.8500     0.9380    -8.0790 ha         1 RA1       0.126000
     30 H7           0.1680    -1.3890    -4.0630 ha         1 RA1       0.148000
     31 H8          -1.0440    -1.5800    -6.2010 ha         1 RA1       0.126000
     32 H9          -0.3920    -1.8920   -10.4670 hn         1 RA1       0.312467
     33 H10          1.0560    -1.6440    -9.7520 hn         1 RA1       0.312467
     34 HN3         -0.0550    -2.6030    -9.0340 hn         1 RA1       0.312467
@<TRIPOS>BOND
     1     1     2 1   
     2     2     3 ar  
     3     2    10 ar  
     4     3     4 ar  
     5     3    24 1   
     6     4     5 1   
     7     4     8 ar  
     8     5     6 1   
     9     5     7 1   
    10     8     9 ar  
    11     8    25 1   
    12     9    10 ar  
    13     9    26 1   
    14    10    11 1   
    15    11    12 2   
    16    11    13 1   
    17    13    14 1   
    18    13    27 1   
    19    14    15 ar  
    20    14    17 ar  
    21    15    16 ar  
    22    15    28 1   
    23    16    19 ar  
    24    16    29 1   
    25    17    18 ar  
    26    17    30 1   
    27    18    19 ar  
    28    18    31 1   
    29    19    20 1   
    30    20    21 2   
    31    20    22 2   
    32    20    23 1   
    33    23    32 1   
    34    23    33 1   
    35    23    34 1   
@<TRIPOS>SUBSTRUCTURE
     1 RA1         1 TEMP              0 ****  ****    0 ROOT
