@<TRIPOS>MOLECULE
molecule
   34    35     1     0     0
SMALL
bcc


@<TRIPOS>ATOM
      1 Cl           0.0000     0.0000     0.0000 cl         1 RA1      -0.020400
      2 C10          1.7360     0.0000     0.0000 ca         1 RA1       0.074400
      3 C9           2.4280     0.0000     1.1940 ca         1 RA1      -0.072000
      4 C8           3.8110    -0.0000     1.1950 ca         1 RA1      -0.110200
      5 N2           4.5470    -0.0010     2.4800 no         1 RA1       0.287200
      6 O4           5.7650    -0.0010     2.4840 o          1 RA1      -0.179000
      7 O3           3.9350    -0.0010     3.5320 o          1 RA1      -0.179000
      8 C7           4.5110    -0.0010     0.0010 ca         1 RA1      -0.079000
      9 C6           3.8320     0.0000    -1.2000 ca         1 RA1      -0.102000
     10 C5           2.4360    -0.0050    -1.2090 ca         1 RA1      -0.129600
     11 C4           1.7030    -0.0050    -2.4920 c          1 RA1       0.674700
     12 O2           0.4870    -0.0100    -2.4980 o          1 RA1      -0.543100
     13 N1           2.3820     0.0010    -3.6570 ns         1 RA1      -0.475100
     14 C3           1.6920    -0.1110    -4.8690 ca         1 RA1       0.168600
     15 C2           2.1660     0.5400    -6.0010 ca         1 RA1      -0.159500
     16 C1           1.4830     0.4280    -7.1960 ca         1 RA1      -0.005000
     17 C11          0.5360    -0.8760    -4.9430 ca         1 RA1      -0.159500
     18 C12         -0.1410    -0.9850    -6.1420 ca         1 RA1      -0.005000
     19 C            0.3290    -0.3300    -7.2660 ca         1 RA1      -0.370500
     20 S           -0.5400    -0.4690    -8.7920 sy         1 RA1       1.225200
     21 O           -1.8830    -0.7970    -8.4610 o          1 RA1      -0.518800
     22 O1          -0.1850     0.6720    -9.5610 o          1 RA1      -0.518800
     23 N            0.0790    -1.7820    -9.5900 nz         1 RA1      -0.806500
     24 H1           1.8870     0.0000     2.1330 ha         1 RA1       0.194000
     25 H2           5.5940     0.0010     0.0090 ha         1 RA1       0.181000
     26 H3           4.3810    -0.0020    -2.1330 ha         1 RA1       0.140000
     27 H4           3.3640     0.1950    -3.6590 hn         1 RA1       0.342500
     28 H5           3.0700     1.1340    -5.9460 ha         1 RA1       0.177500
     29 H6           1.8500     0.9380    -8.0790 ha         1 RA1       0.158500
     30 H7           0.1680    -1.3890    -4.0630 ha         1 RA1       0.177500
     31 H8          -1.0440    -1.5800    -6.2010 ha         1 RA1       0.158500
     32 H9          -0.3920    -1.8920   -10.4670 hn         1 RA1       0.491133
     33 H10          1.0560    -1.6440    -9.7520 hn         1 RA1       0.491133
     34 HN3         -0.0550    -2.6030    -9.0340 hn         1 RA1       0.491133
@<TRIPOS>BOND
     1     6     5 1
     2     5     7 1
     3     5     4 1
     4     8     4 ar
     5     8     9 ar
     6     4     3 ar
     7     9    10 ar
     8     3     2 ar
     9    10    11 1
    10    10     2 ar
    11    12    11 2
    12    11    13 1
    13     2     1 1
    14    13    14 1
    15    14    15 ar
    16    14    17 ar
    17    15    16 ar
    18    17    18 ar
    19    16    19 ar
    20    18    19 ar
    21    19    20 1
    22    23    20 1
    23    22    20 2
    24    20    21 2
    25     3    24 1
    26     8    25 1
    27     9    26 1
    28    13    27 1
    29    15    28 1
    30    16    29 1
    31    17    30 1
    32    18    31 1
    33    23    32 1
    34    23    33 1
    35    34    23 1
@<TRIPOS>SUBSTRUCTURE
     1 RA1         1 TEMP              0 ****  ****    0 ROOT
