@<TRIPOS>MOLECULE
RA2
   50    51     1     0     0
SMALL
bcc


@<TRIPOS>ATOM
      1 C1           0.0000     0.0000     0.0000 ca         1 RA2      -0.068000
      2 C2           1.3900     0.0000     0.0000 ca         1 RA2      -0.189400
      3 C3           2.0900     0.0000     1.2070 ca         1 RA2       0.070600
      4 C4           1.4010     0.0140     2.4050 ca         1 RA2      -0.180000
      5 C5           0.0040     0.0200     2.4040 ca         1 RA2      -0.042600
      6 C6          -0.6910     0.0130     1.1910 ca         1 RA2      -0.121000
      7 C10         -0.7360     0.0320     3.6790 c          1 RA2       0.971200
      8 N11          2.0850    -0.0130    -1.2110 n          1 RA2       0.037000
      9 N12          3.4890    -0.0050     1.2050 nu         1 RA2      -0.468600
     10 C13          4.2250     0.0020     2.4710 c3         1 RA2       0.136500
     11 C14          5.5580    -0.7260     2.2920 c3         1 RA2      -0.040400
     12 C15          5.2960    -2.1710     1.8620 c3         1 RA2      -0.022600
     13 C21          4.4870     1.4450     2.9020 c3         1 RA2      -0.040400
     14 C23          3.1540     2.1740     3.0810 c3         1 RA2      -0.022600
     15 C29          2.5030    -1.2300    -1.9120 c3         1 RA2      -0.038600
     16 C30          2.8230    -0.7840    -3.3570 c3         1 RA2      -0.026400
     17 C31          3.1860     0.7050    -3.1520 c3         1 RA2      -0.118400
     18 C32          2.4640     1.0900    -1.8790 c          1 RA2       0.616500
     19 O37          2.2570     2.2290    -1.5150 o          1 RA2      -0.667500
     20 C38          3.7490    -1.8290    -1.2570 c3         1 RA2       0.202900
     21 O39          4.7990    -0.8590    -1.2540 oh         1 RA2      -0.571800
     22 C42          1.3640    -2.2510    -1.9130 c3         1 RA2       0.202900
     23 O43          1.0600    -2.6280    -0.5690 oh         1 RA2      -0.571800
     24 O49         -2.0830     0.0380     3.6770 o          1 RA2      -0.887800
     25 O50         -0.1320     0.0370     4.7330 o          1 RA2      -0.887800
     26 H1          -0.5410    -0.0110    -0.9390 ha         1 RA2       0.082000
     27 H4           1.9410    -0.0570     3.3410 ha         1 RA2       0.142000
     28 H6          -1.7740     0.0140     1.1880 ha         1 RA2       0.129000
     29 H12          3.9870    -0.0110     0.3370 hn         1 RA2       0.316800
     30 H13          3.6390    -0.5000     3.2320 h1         1 RA2       0.057700
     31 H141         6.1010    -0.7210     3.2290 hc         1 RA2       0.008200
     32 H142         6.1440    -0.2240     1.5320 hc         1 RA2       0.008200
     33 H151         5.7810    -2.8480     2.5550 hc         1 RA2       0.012867
     34 H152         4.2290    -2.3600     1.8600 hc         1 RA2       0.012867
     35 H153         5.6930    -2.3300     0.8660 hc         1 RA2       0.012867
     36 H211         5.0730     1.9480     2.1420 hc         1 RA2       0.008200
     37 H212         5.0300     1.4500     3.8390 hc         1 RA2       0.008200
     38 H231         2.5660     1.6700     3.8390 hc         1 RA2       0.012867
     39 H232         3.3400     3.1960     3.3900 hc         1 RA2       0.012867
     40 H233         2.6120     2.1730     2.1430 hc         1 RA2       0.012867
     41 H301         3.6670    -1.3360    -3.7530 hc         1 RA2       0.018200
     42 H302         1.9510    -0.8840    -3.9930 hc         1 RA2       0.018200
     43 H311         2.8290     1.2990    -3.9840 hc         1 RA2       0.036200
     44 H312         4.2560     0.8190    -3.0280 hc         1 RA2       0.036200
     45 H381         3.5190    -2.1150    -0.2380 h1         1 RA2       0.003700
     46 H282         4.0660    -2.7020    -1.8140 h1         1 RA2       0.003700
     47 H39          5.5710    -1.2290    -1.6480 ho         1 RA2       0.383000
     48 H421         1.6640    -3.1270    -2.4750 h1         1 RA2       0.003700
     49 H422         0.4860    -1.8120    -2.3720 h1         1 RA2       0.003700
     50 H43          0.6020    -3.4520    -0.5700 ho         1 RA2       0.383000
@<TRIPOS>BOND
     1     1     2 ar  
     2     1     6 ar  
     3     1    26 1   
     4     2     3 ar  
     5     2     8 1   
     6     3     4 ar  
     7     3     9 1   
     8     4     5 ar  
     9     4    27 1   
    10     5     6 ar  
    11     5     7 1   
    12     6    28 1   
    13     7    24 1   
    14     7    25 1   
    15     8    15 1   
    16     8    18 1   
    17     9    10 1   
    18     9    29 1   
    19    10    11 1   
    20    10    13 1   
    21    10    30 1   
    22    11    12 1   
    23    11    31 1   
    24    11    32 1   
    25    12    33 1   
    26    12    34 1   
    27    12    35 1   
    28    13    14 1   
    29    13    36 1   
    30    13    37 1   
    31    14    38 1   
    32    14    39 1   
    33    14    40 1   
    34    15    16 1   
    35    15    20 1   
    36    15    22 1   
    37    16    17 1   
    38    16    41 1   
    39    16    42 1   
    40    17    18 1   
    41    17    43 1   
    42    17    44 1   
    43    18    19 2   
    44    20    21 1   
    45    20    45 1   
    46    20    46 1   
    47    21    47 1   
    48    22    23 1   
    49    22    48 1   
    50    22    49 1   
    51    23    50 1   
@<TRIPOS>SUBSTRUCTURE
     1 RA2         1 TEMP              0 ****  ****    0 ROOT
