@<TRIPOS>MOLECULE
RA5
   41    43     1     0     0
SMALL
bcc


@<TRIPOS>ATOM
      1 O17          0.0000     0.0000     0.0000 o          1 RA5      -0.500800
      2 S14          1.4210     0.0000     0.0000 sy         1 RA5       0.932200
      3 O19          2.1980     0.0000     1.1900 o          1 RA5      -0.500800
      4 N18          1.8870    -1.3340    -0.8640 nz         1 RA5      -0.132500
      5 C14          1.9180     1.4170    -0.9200 ca         1 RA5      -0.258500
      6 C13          1.0600     1.9730    -1.8500 ca         1 RA5       0.032500
      7 C12          1.4470     3.0840    -2.5730 ca         1 RA5      -0.141000
      8 C15          3.1660     1.9760    -0.7050 ca         1 RA5       0.032500
      9 C16          3.5600     3.0870    -1.4250 ca         1 RA5      -0.141000
     10 C11          2.7020     3.6440    -2.3650 ca         1 RA5       0.031600
     11 N            3.0970     4.7700    -3.0940 ns         1 RA5      -0.053100
     12 C10          2.7090     4.9100    -4.3770 c          1 RA5       0.635300
     13 O3           1.9480     4.1040    -4.8740 o          1 RA5      -0.648100
     14 C8           3.2060     6.0430    -5.1760 cc         1 RA5      -0.384400
     15 C9           2.8210     6.2200    -6.4980 cd         1 RA5       0.158800
     16 C5           3.3660     7.3220    -7.2080 ca         1 RA5      -0.176800
     17 C4           2.8600     7.6780    -8.4670 ca         1 RA5      -0.061000
     18 C3           3.3580     8.7710    -9.1160 ca         1 RA5      -0.105000
     19 C2           4.3700     9.5300    -8.5470 ca         1 RA5      -0.152000
     20 C7           4.1310     7.0390    -4.6040 c          1 RA5       0.823800
     21 O2           4.1540     7.2580    -3.4070 o          1 RA5      -0.630500
     22 O1           4.9510     7.7010    -5.4500 os         1 RA5      -0.258200
     23 C6           4.4120     8.0710    -6.6390 ca         1 RA5       0.145100
     24 C1           4.9010     9.1860    -7.3170 ca         1 RA5       0.162100
     25 O            5.8970     9.9340    -6.7700 os         1 RA5      -0.290900
     26 C            6.3480    11.0620    -7.5220 c3         1 RA5       0.247700
     27 H1           1.4430    -1.3230    -1.7610 hn         1 RA5       0.312133
     28 H2           1.6200    -2.1620    -0.3700 hn         1 RA5       0.312133
     29 H3           0.0820     1.5360    -2.0120 ha         1 RA5       0.123000
     30 H4           0.7740     3.5170    -3.3040 ha         1 RA5       0.152500
     31 H5           3.8340     1.5410     0.0280 ha         1 RA5       0.123000
     32 H6           4.5370     3.5220    -1.2580 ha         1 RA5       0.152500
     33 H7           3.6290     5.4920    -2.6500 hn         1 RA5       0.231500
     34 H8           1.9460     5.7090    -6.8810 ha         1 RA5       0.130000
     35 H9           2.1170     7.0530    -8.9480 ha         1 RA5       0.115000
     36 H10          2.9580     9.0480   -10.0840 ha         1 RA5       0.117000
     37 H11          4.4960    10.2960    -9.3030 ha         1 RA5       0.144000
     38 H12          7.1380    11.5660    -6.9780 h1         1 RA5       0.002700
     39 H13          6.7250    10.7290    -8.4810 h1         1 RA5       0.002700
     40 H14          5.5230    11.7470    -7.6760 h1         1 RA5       0.002700
     41 H183         2.8800    -1.3200    -0.9890 hn         1 RA5       0.312133
@<TRIPOS>BOND
     1     1     2 2   
     2     2     3 2   
     3     2     4 1   
     4     2     5 1   
     5     4    27 1   
     6     4    28 1   
     7     4    41 1   
     8     5     6 ar  
     9     5     8 ar  
    10     6     7 ar  
    11     6    29 1   
    12     7    10 ar  
    13     7    30 1   
    14     8     9 ar  
    15     8    31 1   
    16     9    10 ar  
    17     9    32 1   
    18    10    11 1   
    19    11    12 1   
    20    11    33 1   
    21    12    13 2   
    22    12    14 1   
    23    14    15 2   
    24    14    20 1   
    25    15    16 1   
    26    15    34 1   
    27    16    17 ar  
    28    16    23 ar  
    29    17    18 ar  
    30    17    35 1   
    31    18    19 ar  
    32    18    36 1   
    33    19    24 ar  
    34    19    37 1   
    35    20    21 2   
    36    20    22 1   
    37    22    23 1   
    38    23    24 ar  
    39    24    25 1   
    40    25    26 1   
    41    26    38 1   
    42    26    39 1   
    43    26    40 1   
@<TRIPOS>SUBSTRUCTURE
     1 RA5         1 TEMP              0 ****  ****    0 ROOT
