@<TRIPOS>MOLECULE
molecule
   41    43     1     0     0
SMALL
bcc


@<TRIPOS>ATOM
      1 O17          0.0000     0.0000     0.0000 o          1 RA5      -0.524800
      2 S14          1.4210     0.0000     0.0000 sy         1 RA5       1.224200
      3 O19          2.1980     0.0000     1.1900 o          1 RA5      -0.524800
      4 N18          1.8870    -1.3340    -0.8640 nz         1 RA5      -0.805500
      5 C14          1.9180     1.4170    -0.9200 ca         1 RA5      -0.370500
      6 C13          1.0600     1.9730    -1.8500 ca         1 RA5      -0.011500
      7 C12          1.4470     3.0840    -2.5730 ca         1 RA5      -0.157000
      8 C15          3.1660     1.9760    -0.7050 ca         1 RA5      -0.011500
      9 C16          3.5600     3.0870    -1.4250 ca         1 RA5      -0.157000
     10 C11          2.7020     3.6440    -2.3650 ca         1 RA5       0.171600
     11 N            3.0970     4.7700    -3.0940 ns         1 RA5      -0.473100
     12 C10          2.7090     4.9100    -4.3770 c          1 RA5       0.710300
     13 O3           1.9480     4.1040    -4.8740 o          1 RA5      -0.603100
     14 C8           3.2060     6.0430    -5.1760 cc         1 RA5      -0.340400
     15 C9           2.8210     6.2200    -6.4980 cd         1 RA5       0.095800
     16 C5           3.3660     7.3220    -7.2080 ca         1 RA5      -0.153800
     17 C4           2.8600     7.6780    -8.4670 ca         1 RA5      -0.096000
     18 C3           3.3580     8.7710    -9.1160 ca         1 RA5      -0.128000
     19 C2           4.3700     9.5300    -8.5470 ca         1 RA5      -0.173000
     20 C7           4.1310     7.0390    -4.6040 c          1 RA5       0.756800
     21 O2           4.1540     7.2580    -3.4070 o          1 RA5      -0.582500
     22 O1           4.9510     7.7010    -5.4500 os         1 RA5      -0.278200
     23 C6           4.4120     8.0710    -6.6390 ca         1 RA5       0.141100
     24 C1           4.9010     9.1860    -7.3170 ca         1 RA5       0.158100
     25 O            5.8970     9.9340    -6.7700 os         1 RA5      -0.306900
     26 C            6.3480    11.0620    -7.5220 c3         1 RA5       0.127700
     27 H1           1.4430    -1.3230    -1.7610 hn         1 RA5       0.490133
     28 H2           1.6200    -2.1620    -0.3700 hn         1 RA5       0.490133
     29 H3           0.0820     1.5360    -2.0120 ha         1 RA5       0.155500
     30 H4           0.7740     3.5170    -3.3040 ha         1 RA5       0.181500
     31 H5           3.8340     1.5410     0.0280 ha         1 RA5       0.155500
     32 H6           4.5370     3.5220    -1.2580 ha         1 RA5       0.181500
     33 H7           3.6290     5.4920    -2.6500 hn         1 RA5       0.376500
     34 H8           1.9460     5.7090    -6.8810 ha         1 RA5       0.173000
     35 H9           2.1170     7.0530    -8.9480 ha         1 RA5       0.147000
     36 H10          2.9580     9.0480   -10.0840 ha         1 RA5       0.149000
     37 H11          4.4960    10.2960    -9.3030 ha         1 RA5       0.171000
     38 H12          7.1380    11.5660    -6.9780 h1         1 RA5       0.050033
     39 H13          6.7250    10.7290    -8.4810 h1         1 RA5       0.050033
     40 H14          5.5230    11.7470    -7.6760 h1         1 RA5       0.050033
     41 H183         2.8800    -1.3200    -0.9890 hn         1 RA5       0.490133
@<TRIPOS>BOND
     1    18    19 ar
     2    18    17 ar
     3    19    24 ar
     4    17    16 ar
     5    24    25 1
     6    24    23 ar
     7    16    23 ar
     8    16    15 1
     9    26    25 1
    10    23    22 1
    11    15    14 2
    12    22    20 1
    13    14    20 1
    14    14    12 1
    15    20    21 2
    16    13    12 2
    17    12    11 1
    18    11    10 1
    19    10     9 ar
    20    10     7 ar
    21     9     8 ar
    22     7     6 ar
    23     8     5 ar
    24     6     5 ar
    25     5     2 1
    26     4     2 1
    27     3     2 2
    28     2     1 2
    29     4    27 1
    30     4    28 1
    31     6    29 1
    32     7    30 1
    33     8    31 1
    34     9    32 1
    35    11    33 1
    36    15    34 1
    37    17    35 1
    38    18    36 1
    39    19    37 1
    40    26    38 1
    41    26    39 1
    42    26    40 1
    43    41     4 1
@<TRIPOS>SUBSTRUCTURE
     1 RA5         1 TEMP              0 ****  ****    0 ROOT
