@<TRIPOS>MOLECULE
RA9
   33    34     1     0     0
SMALL
bcc


@<TRIPOS>ATOM
      1 O2           0.0000     0.0000     0.0000 o          1 RA9      -0.498800
      2 S2           1.4210     0.0000     0.0000 sy         1 RA9       0.935200
      3 O1           2.1980     0.0000     1.1900 o          1 RA9      -0.498800
      4 N4           1.8890    -1.3340    -0.8630 nz         1 RA9      -0.131500
      5 C2           1.9190     1.4170    -0.9200 ca         1 RA9      -0.255500
      6 C1           1.0610     1.9720    -1.8510 ca         1 RA9       0.036000
      7 C3           3.1660     1.9760    -0.7050 ca         1 RA9       0.036000
      8 C4           3.5580     3.0870    -1.4250 ca         1 RA9      -0.136000
      9 C5           2.7010     3.6440    -2.3640 ca         1 RA9       0.023600
     10 C            1.4480     3.0830    -2.5740 ca         1 RA9      -0.136000
     11 N            3.0960     4.7700    -3.0950 ns         1 RA9      -0.037100
     12 C6           4.3910     4.9350    -3.4300 c          1 RA9       0.589100
     13 O            5.1970     4.0630    -3.1840 o          1 RA9      -0.594100
     14 C7           4.8370     6.2030    -4.1110 c3         1 RA9      -0.000300
     15 S            6.6210     6.1240    -4.4300 ss         1 RA9      -0.300400
     16 C8           6.9520     7.6650    -5.2170 cc         1 RA9       0.544700
     17 N1           6.0740     8.5850    -5.4660 nd         1 RA9      -0.290000
     18 S1           8.5300     8.2030    -5.7840 ss         1 RA9      -0.377800
     19 C9           7.8260     9.7140    -6.3490 cc         1 RA9       0.577300
     20 N2           6.5560     9.7150    -6.0910 nd         1 RA9      -0.423000
     21 N3           8.5230    10.7450    -6.9680 nv         1 RA9      -0.446500
     22 H1           2.8830    -1.3220    -0.9840 hn         1 RA9       0.313133
     23 H2           1.6240    -2.1620    -0.3670 hn         1 RA9       0.313133
     24 H3           0.0800     1.5390    -2.0090 ha         1 RA9       0.126500
     25 H4           3.8280     1.5520     0.0400 ha         1 RA9       0.126500
     26 H5           4.5140     3.5540    -1.2200 ha         1 RA9       0.148000
     27 H6           0.7600     3.5400    -3.2750 ha         1 RA9       0.148000
     28 H7           2.4230     5.4680    -3.3420 hn         1 RA9       0.191500
     29 H8           4.6220     7.0510    -3.4720 h1         1 RA9       0.070200
     30 H9           4.3070     6.3140    -5.0500 h1         1 RA9       0.070200
     31 H10          8.0400    11.5740    -7.2540 hn         1 RA9       0.281800
     32 H11          9.5070    10.6590    -7.1270 hn         1 RA9       0.281800
     33 H43          1.4480    -1.3220    -1.7610 hn         1 RA9       0.313133
@<TRIPOS>BOND
     1     1     2 2   
     2     2     3 2   
     3     2     4 1   
     4     2     5 1   
     5     4    22 1   
     6     4    23 1   
     7     4    33 1   
     8     5     6 ar  
     9     5     7 ar  
    10     6    10 ar  
    11     6    24 1   
    12     7     8 ar  
    13     7    25 1   
    14     8     9 ar  
    15     8    26 1   
    16     9    10 ar  
    17     9    11 1   
    18    10    27 1   
    19    11    12 1   
    20    11    28 1   
    21    12    13 2   
    22    12    14 1   
    23    14    15 1   
    24    14    29 1   
    25    14    30 1   
    26    15    16 1   
    27    16    17 2   
    28    16    18 1   
    29    17    20 1   
    30    18    19 1   
    31    19    20 2   
    32    19    21 1   
    33    21    31 1   
    34    21    32 1   
@<TRIPOS>SUBSTRUCTURE
     1 RA9         1 TEMP              0 ****  ****    0 ROOT
