@<TRIPOS>MOLECULE
molecule
   33    34     1     0     0
SMALL
bcc


@<TRIPOS>ATOM
      1 O2           0.0000     0.0000     0.0000 o          1 RA9      -0.522300
      2 S2           1.4210     0.0000     0.0000 sy         1 RA9       1.227200
      3 O1           2.1980     0.0000     1.1900 o          1 RA9      -0.522300
      4 N4           1.8890    -1.3340    -0.8630 nz         1 RA9      -0.806500
      5 C2           1.9190     1.4170    -0.9200 ca         1 RA9      -0.368500
      6 C1           1.0610     1.9720    -1.8510 ca         1 RA9      -0.008000
      7 C3           3.1660     1.9760    -0.7050 ca         1 RA9      -0.008000
      8 C4           3.5580     3.0870    -1.4250 ca         1 RA9      -0.155000
      9 C5           2.7010     3.6440    -2.3640 ca         1 RA9       0.167600
     10 C            1.4480     3.0830    -2.5740 ca         1 RA9      -0.155000
     11 N            3.0960     4.7700    -3.0950 ns         1 RA9      -0.476100
     12 C6           4.3910     4.9350    -3.4300 c          1 RA9       0.681100
     13 O            5.1970     4.0630    -3.1840 o          1 RA9      -0.567100
     14 C7           4.8370     6.2030    -4.1110 c3         1 RA9      -0.106300
     15 S            6.6210     6.1240    -4.4300 ss         1 RA9      -0.175400
     16 C8           6.9520     7.6650    -5.2170 cc         1 RA9       0.488700
     17 N1           6.0740     8.5850    -5.4660 nc         1 RA9      -0.326000
     18 S1           8.5300     8.2030    -5.7840 ss         1 RA9      -0.313800
     19 C9           7.8260     9.7140    -6.3490 cd         1 RA9       0.720300
     20 N2           6.5560     9.7150    -6.0910 nc         1 RA9      -0.423000
     21 N3           8.5230    10.7450    -6.9680 nv         1 RA9      -0.978500
     22 H1           2.8830    -1.3220    -0.9840 hn         1 RA9       0.491467
     23 H2           1.6240    -2.1620    -0.3670 hn         1 RA9       0.491467
     24 H3           0.0800     1.5390    -2.0090 ha         1 RA9       0.158500
     25 H4           3.8280     1.5520     0.0400 ha         1 RA9       0.158500
     26 H5           4.5140     3.5540    -1.2200 ha         1 RA9       0.178000
     27 H6           0.7600     3.5400    -3.2750 ha         1 RA9       0.178000
     28 H7           2.4230     5.4680    -3.3420 hn         1 RA9       0.350500
     29 H8           4.6220     7.0510    -3.4720 h1         1 RA9       0.105700
     30 H9           4.3070     6.3140    -5.0500 h1         1 RA9       0.105700
     31 H10          8.0400    11.5740    -7.2540 hn         1 RA9       0.458800
     32 H11          9.5070    10.6590    -7.1270 hn         1 RA9       0.458800
     33 H43          1.4480    -1.3220    -1.7610 hn         1 RA9       0.491467
@<TRIPOS>BOND
     1    20    17 1
     2    20    19 2
     3    17    16 2
     4    14    12 1
     5    14    15 1
     6    19    21 1
     7    19    18 1
     8    16    15 1
     9    16    18 1
    10    12    11 1
    11    12    13 2
    12    11     9 1
    13     9     8 ar
    14     9    10 ar
    15     8     7 ar
    16    10     6 ar
    17     7     5 ar
    18     6     5 ar
    19     5     2 1
    20     4     2 1
    21     1     2 2
    22     2     3 2
    23     4    22 1
    24     4    23 1
    25     6    24 1
    26     7    25 1
    27     8    26 1
    28    10    27 1
    29    11    28 1
    30    14    29 1
    31    14    30 1
    32    21    31 1
    33    21    32 1
    34    33     4 1
@<TRIPOS>SUBSTRUCTURE
     1 RA9         1 TEMP              0 ****  ****    0 ROOT
