@<TRIPOS>MOLECULE
RAB
   32    34     1     0     0
SMALL
bcc


@<TRIPOS>ATOM
      1 O5'          0.0000     0.0000     0.0000 oh         1 RAB      -0.578800
      2 C5'          1.4290     0.0000     0.0000 c3         1 RAB       0.225400
      3 C4'          1.9400     0.0000     1.4410 c3         1 RAB       0.162100
      4 O4'          1.5980    -1.2420     2.0960 os         1 RAB      -0.380600
      5 C1'          2.5090    -1.3470     3.2110 c3         1 RAB       0.158800
      6 N9           2.6110    -2.7400     3.6560 na         1 RAB       0.228000
      7 C4           3.0160    -3.1690     4.8950 ca         1 RAB       0.258800
      8 N3           3.4160    -2.5680     6.0120 nb         1 RAB      -0.683000
      9 C2           3.7500    -3.2750     7.0700 ca         1 RAB       0.681900
     10 N1           3.7070    -4.5950     7.0840 nb         1 RAB      -0.735000
     11 C6           3.3200    -5.2820     6.0150 ca         1 RAB       0.591200
     12 N6           3.2790    -6.6650     6.0380 nv         1 RAB      -0.502500
     13 C5           2.9590    -4.5720     4.8570 ca         1 RAB      -0.228200
     14 N7           2.5210    -4.9200     3.6230 nc         1 RAB      -0.506100
     15 C8           2.3200    -3.8470     2.9160 cd         1 RAB       0.276700
     16 C2'          3.8680    -0.8580     2.6620 c3         1 RAB       0.117100
     17 O2'          4.6570    -1.9630     2.2180 oh         1 RAB      -0.572800
     18 C3'          3.4830     0.0480     1.4680 c3         1 RAB       0.122100
     19 O3'          3.9390     1.3840     1.6870 oh         1 RAB      -0.573800
     20 H5'         -0.3140     0.3150    -0.8310 ho         1 RAB       0.391000
     21 H5'1         1.7890    -0.8850    -0.5110 h1         1 RAB      -0.004300
     22 H5'2         1.7890     0.8840    -0.5110 h1         1 RAB      -0.004300
     23 H4'          1.5300     0.8380     1.9920 h1         1 RAB       0.045700
     24 H1'          2.1820    -0.7090     4.0230 h2         1 RAB       0.056700
     25 H2           4.0710    -2.7550     7.9640 h5         1 RAB      -0.006900
     26 HN61         3.3860    -7.1840     5.1890 hn         1 RAB       0.275800
     27 HN62         3.1290    -7.1470     6.9030 hn         1 RAB       0.275800
     28 H8           1.9720    -3.8350     1.8900 h5         1 RAB       0.041800
     29 H2'          4.3950    -0.2850     3.4150 h1         1 RAB       0.042700
     30 H1           5.5720    -1.7500     2.3010 ho         1 RAB       0.400000
     31 H3'          3.8880    -0.3510     0.5460 h1         1 RAB       0.030700
     32 H3           4.6100     1.5940     1.0580 ho         1 RAB       0.395000
@<TRIPOS>BOND
     1     1     2 1   
     2     1    20 1   
     3     2     3 1   
     4     2    21 1   
     5     2    22 1   
     6     3     4 1   
     7     3    18 1   
     8     3    23 1   
     9     4     5 1   
    10     5     6 1   
    11     5    16 1   
    12     5    24 1   
    13     6     7 1   
    14     6    15 1   
    15     7     8 ar  
    16     7    13 ar  
    17     8     9 ar  
    18     9    10 ar  
    19     9    25 1   
    20    10    11 ar  
    21    11    12 1   
    22    11    13 ar  
    23    12    26 1   
    24    12    27 1   
    25    13    14 1   
    26    14    15 2   
    27    15    28 1   
    28    16    17 1   
    29    16    18 1   
    30    16    29 1   
    31    17    30 1   
    32    18    19 1   
    33    18    31 1   
    34    19    32 1   
@<TRIPOS>SUBSTRUCTURE
     1 RAB         1 TEMP              0 ****  ****    0 ROOT
