@<TRIPOS>MOLECULE
molecule
   42    43     1     0     0
SMALL
bcc


@<TRIPOS>ATOM
      1 C1           0.0000     0.0000     0.0000 ca         1 RAC      -0.165000
      2 C2           1.3780     0.0000     0.0000 ca         1 RAC      -0.091000
      3 C3           2.0740     0.0000     1.2110 ca         1 RAC      -0.181600
      4 C4           1.3630    -0.0050     2.4190 ca         1 RAC       0.129600
      5 C5          -0.0250     0.0010     2.3990 ca         1 RAC      -0.139000
      6 C6          -0.7000    -0.0000     1.1950 ca         1 RAC      -0.099000
      7 C7           3.5490     0.0010     1.2180 c          1 RAC       0.670700
      8 N1           4.2260    -0.9620     0.5620 n          1 RAC      -0.500800
      9 C8           5.6840    -0.8820     0.4450 c3         1 RAC       0.100800
     10 C9           3.5050    -2.0890    -0.0330 c3         1 RAC       0.100800
     11 O1           4.1530     0.8690     1.8160 o          1 RAC      -0.584100
     12 N2           2.0460    -0.0060     3.6330 ns         1 RAC      -0.455100
     13 C10          1.5160     0.6170     4.7040 c          1 RAC       0.760100
     14 O2           0.4450     1.1840     4.6100 o          1 RAC      -0.618000
     15 O3           2.1740     0.6130     5.8780 os         1 RAC      -0.431900
     16 C11          1.6030     1.2860     7.0320 c3         1 RAC       0.229700
     17 C12          2.5300     1.1330     8.2110 ca         1 RAC      -0.140300
     18 C13          3.5170     2.0760     8.4380 ca         1 RAC      -0.131000
     19 C14          4.3670     1.9430     9.5150 ca         1 RAC      -0.108500
     20 C15          4.2310     0.8540    10.3770 ca         1 RAC      -0.084600
     21 C16          3.2340    -0.0950    10.1420 ca         1 RAC      -0.108500
     22 C17          2.3860     0.0540     9.0640 ca         1 RAC      -0.131000
     23 C18          5.1400     0.7040    11.5330 c          1 RAC       0.880200
     24 O4           5.0060    -0.3480    12.3630 o          1 RAC      -0.834300
     25 O5           6.0070     1.5290    11.7350 o          1 RAC      -0.834300
     26 HC1         -0.5390    -0.0000    -0.9400 ha         1 RAC       0.125000
     27 HC2          1.9200     0.0020    -0.9380 ha         1 RAC       0.132000
     28 HC5         -0.5800    -0.0010     3.3300 ha         1 RAC       0.177000
     29 HC6         -1.7840     0.0020     1.1850 ha         1 RAC       0.131000
     30 HC81         6.1380    -1.1440     1.3940 h1         1 RAC       0.040533
     31 HC82         5.9700     0.1270     0.1750 h1         1 RAC       0.040533
     32 HC83         6.0240    -1.5710    -0.3190 h1         1 RAC       0.040533
     33 HC91         2.6590    -2.3470     0.5920 h1         1 RAC       0.040533
     34 HC92         3.1530    -1.8120    -1.0200 h1         1 RAC       0.040533
     35 HC93         4.1680    -2.9410    -0.1130 h1         1 RAC       0.040533
     36 HN2          2.9050    -0.5110     3.7230 hn         1 RAC       0.344500
     37 H111         0.6420     0.8450     7.2680 h1         1 RAC       0.044200
     38 H112         1.4730     2.3380     6.8090 h1         1 RAC       0.044200
     39 H13C         3.6220     2.9210     7.7680 ha         1 RAC       0.110000
     40 H14C         5.1800     2.6450     9.6540 ha         1 RAC       0.152500
     41 H16C         3.1770    -0.9840    10.7580 ha         1 RAC       0.152500
     42 H17C         1.6050    -0.6750     8.8870 ha         1 RAC       0.110000
@<TRIPOS>BOND
     1     1     2 ar
     2     1     6 ar
     3     1    26 1
     4     2     3 ar
     5     2    27 1
     6     3     4 ar
     7     3     7 1
     8     4     5 ar
     9     4    12 1
    10     5     6 ar
    11     5    28 1
    12     6    29 1
    13     7     8 1
    14     7    11 2
    15     8     9 1
    16     8    10 1
    17     9    30 1
    18     9    31 1
    19     9    32 1
    20    10    33 1
    21    10    34 1
    22    10    35 1
    23    12    13 1
    24    12    36 1
    25    13    14 2
    26    13    15 1
    27    15    16 1
    28    16    17 1
    29    16    37 1
    30    16    38 1
    31    17    18 ar
    32    17    22 ar
    33    18    19 ar
    34    18    39 1
    35    19    20 ar
    36    19    40 1
    37    20    21 ar
    38    20    23 1
    39    21    22 ar
    40    21    41 1
    41    22    42 1
    42    23    24 1
    43    23    25 1
@<TRIPOS>SUBSTRUCTURE
     1 RAC         1 TEMP              0 ****  ****    0 ROOT
