@<TRIPOS>MOLECULE
RAI
   41    42     1     0     0
SMALL
bcc


@<TRIPOS>ATOM
      1 C1           0.0000     0.0000     0.0000 ca         1 RAI      -0.073000
      2 C2           1.3890     0.0000     0.0000 ca         1 RAI      -0.054400
      3 C3           2.0910     0.0000     1.2060 ca         1 RAI      -0.121400
      4 C4           1.4020     0.0110     2.4050 ca         1 RAI      -0.158000
      5 C5           0.0050     0.0160     2.4040 ca         1 RAI      -0.047600
      6 C6          -0.6910     0.0110     1.1920 ca         1 RAI      -0.028000
      7 C10         -0.7340     0.0270     3.6800 c          1 RAI       0.955200
      8 O11         -2.0810     0.0320     3.6780 o          1 RAI      -0.853800
      9 N12          3.4910    -0.0040     1.2030 nu         1 RAI      -0.244600
     10 C13          4.1800    -0.8200     2.0720 c2         1 RAI       0.273100
     11 N14          3.4960    -1.7150     2.8590 nz         1 RAI       0.150400
     12 N15          2.0850    -0.0100    -1.2100 n          1 RAI      -0.031000
     13 C16          2.5030    -1.2270    -1.9150 c3         1 RAI      -0.027600
     14 C17          2.8210    -0.7750    -3.3600 c3         1 RAI      -0.018400
     15 C18          3.1840     0.7120    -3.1510 c3         1 RAI      -0.108400
     16 C19          2.4630     1.0940    -1.8770 c          1 RAI       0.624500
     17 C24          3.7490    -1.8250    -1.2620 c3         1 RAI       0.216400
     18 O25          4.7970    -0.8560    -1.2570 oh         1 RAI      -0.604300
     19 C28          1.3630    -2.2470    -1.9180 c3         1 RAI       0.216400
     20 O29          1.0600    -2.6270    -0.5740 oh         1 RAI      -0.604300
     21 O32         -0.1290     0.0310     4.7330 o          1 RAI      -0.853800
     22 N33          5.4780    -0.7430     2.1500 n2         1 RAI      -0.717100
     23 O34          2.2560     2.2320    -1.5110 o          1 RAI      -0.643500
     24 H1          -0.5410    -0.0020    -0.9390 ha         1 RAI       0.110000
     25 H4           1.9440     0.0130     3.3420 ha         1 RAI       0.109000
     26 H6          -1.7740     0.0120     1.1900 ha         1 RAI       0.149000
     27 H12          3.9920     0.6240     0.6060 hn         1 RAI       0.332800
     28 H141         3.2530    -1.2800     3.7270 hn         1 RAI       0.237467
     29 H142         4.0730    -2.5140     3.0360 hn         1 RAI       0.237467
     30 H171         3.6650    -1.3260    -3.7590 hc         1 RAI       0.030700
     31 H172         1.9490    -0.8730    -3.9950 hc         1 RAI       0.030700
     32 H181         2.8270     1.3080    -3.9810 hc         1 RAI       0.049200
     33 H182         4.2550     0.8250    -3.0270 hc         1 RAI       0.049200
     34 H241         4.0660    -2.6980    -1.8200 h1         1 RAI       0.001200
     35 H242         3.5190    -2.1130    -0.2430 h1         1 RAI       0.001200
     36 H25          5.6140    -1.2740    -1.4720 ho         1 RAI       0.401500
     37 H281         0.4850    -1.8070    -2.3760 h1         1 RAI       0.001200
     38 H282         1.6630    -3.1220    -2.4820 h1         1 RAI       0.001200
     39 H29          0.6130    -3.4570    -0.5750 ho         1 RAI       0.401500
     40 H33          5.9760    -0.0900     1.5770 hn         1 RAI       0.370400
     41 H143         2.6620    -2.0060     2.3880 hn         1 RAI       0.237467
@<TRIPOS>BOND
     1     1     2 ar  
     2     1     6 ar  
     3     1    24 1   
     4     2     3 ar  
     5     2    12 1   
     6     3     4 ar  
     7     3     9 1   
     8     4     5 ar  
     9     4    25 1   
    10     5     6 ar  
    11     5     7 1   
    12     6    26 1   
    13     7     8 1   
    14     7    21 1   
    15     9    10 1   
    16     9    27 1   
    17    10    11 1   
    18    10    22 2   
    19    11    28 1   
    20    11    29 1   
    21    11    41 1   
    22    12    13 1   
    23    12    16 1   
    24    13    14 1   
    25    13    17 1   
    26    13    19 1   
    27    14    15 1   
    28    14    30 1   
    29    14    31 1   
    30    15    16 1   
    31    15    32 1   
    32    15    33 1   
    33    16    23 2   
    34    17    18 1   
    35    17    34 1   
    36    17    35 1   
    37    18    36 1   
    38    19    20 1   
    39    19    37 1   
    40    19    38 1   
    41    20    39 1   
    42    22    40 1   
@<TRIPOS>SUBSTRUCTURE
     1 RAI         1 TEMP              0 ****  ****    0 ROOT
