@<TRIPOS>MOLECULE
molecule
   41    42     1     0     0
SMALL
bcc


@<TRIPOS>ATOM
      1 C1           0.0000     0.0000     0.0000 ca         1 RAI      -0.103000
      2 C2           1.3890     0.0000     0.0000 ca         1 RAI       0.070600
      3 C3           2.0910     0.0000     1.2060 ca         1 RAI       0.038600
      4 C4           1.4020     0.0110     2.4050 ca         1 RAI      -0.187000
      5 C5           0.0050     0.0160     2.4040 ca         1 RAI      -0.059600
      6 C6          -0.6910     0.0110     1.1920 ca         1 RAI      -0.070000
      7 C10         -0.7340     0.0270     3.6800 c          1 RAI       0.871200
      8 O11         -2.0810     0.0320     3.6780 o          1 RAI      -0.809300
      9 N12          3.4910    -0.0040     1.2030 nu         1 RAI      -0.673600
     10 C13          4.1800    -0.8200     2.0720 c2         1 RAI       0.714100
     11 N14          3.4960    -1.7150     2.8590 nz         1 RAI      -0.810600
     12 N15          2.0850    -0.0100    -1.2100 n          1 RAI      -0.398000
     13 C16          2.5030    -1.2270    -1.9150 c3         1 RAI       0.110400
     14 C17          2.8210    -0.7750    -3.3600 c3         1 RAI      -0.083400
     15 C18          3.1840     0.7120    -3.1510 c3         1 RAI      -0.160400
     16 C19          2.4630     1.0940    -1.8770 c          1 RAI       0.709500
     17 C24          3.7490    -1.8250    -1.2620 c3         1 RAI       0.138400
     18 O25          4.7970    -0.8560    -1.2570 oh         1 RAI      -0.611800
     19 C28          1.3630    -2.2470    -1.9180 c3         1 RAI       0.138400
     20 O29          1.0600    -2.6270    -0.5740 oh         1 RAI      -0.611800
     21 O32         -0.1290     0.0310     4.7330 o          1 RAI      -0.809300
     22 N33          5.4780    -0.7430     2.1500 n2         1 RAI      -0.840100
     23 O34          2.2560     2.2320    -1.5110 o          1 RAI      -0.603500
     24 H1          -0.5410    -0.0020    -0.9390 ha         1 RAI       0.140000
     25 H4           1.9440     0.0130     3.3430 ha         1 RAI       0.124000
     26 H6          -1.7740     0.0120     1.1900 ha         1 RAI       0.183000
     27 H12          3.9870     0.6860     0.6740 hn         1 RAI       0.514800
     28 H141         2.6620    -2.0060     2.3880 hn         1 RAI       0.471467
     29 H142         3.2540    -1.2800     3.7280 hn         1 RAI       0.471467
     30 H171         1.9490    -0.8730    -3.9950 hc         1 RAI       0.060700
     31 H172         3.6650    -1.3260    -3.7590 hc         1 RAI       0.060700
     32 H181         2.8260     1.3080    -3.9810 hc         1 RAI       0.084200
     33 H182         4.2550     0.8250    -3.0270 hc         1 RAI       0.084200
     34 H241         4.0660    -2.6970    -1.8210 h1         1 RAI       0.034450
     35 H242         3.5190    -2.1140    -0.2430 h1         1 RAI       0.034450
     36 H25          5.6170    -1.2780    -1.4540 ho         1 RAI       0.409000
     37 H281         0.4850    -1.8070    -2.3760 h1         1 RAI       0.034450
     38 H282         1.6630    -3.1220    -2.4820 h1         1 RAI       0.034450
     39 H29          0.6130    -3.4570    -0.5760 ho         1 RAI       0.409000
     40 H33          5.9780    -1.3360     2.7830 hn         1 RAI       0.419400
     41 H143         4.0730    -2.5130     3.0360 hn         1 RAI       0.471467
@<TRIPOS>BOND
     1     1     2 ar
     2     1     6 ar
     3     1    24 1
     4     2     3 ar
     5     2    12 1
     6     3     4 ar
     7     3     9 1
     8     4     5 ar
     9     4    25 1
    10     5     6 ar
    11     5     7 1
    12     6    26 1
    13     7     8 1
    14     7    21 1
    15     9    10 1
    16     9    27 1
    17    10    11 1
    18    10    22 2
    19    11    28 1
    20    11    29 1
    21    12    13 1
    22    12    16 1
    23    13    14 1
    24    13    17 1
    25    13    19 1
    26    14    15 1
    27    14    30 1
    28    14    31 1
    29    15    16 1
    30    15    32 1
    31    15    33 1
    32    16    23 2
    33    17    18 1
    34    17    34 1
    35    17    35 1
    36    18    36 1
    37    19    20 1
    38    19    37 1
    39    19    38 1
    40    20    39 1
    41    22    40 1
    42    41    11 1
@<TRIPOS>SUBSTRUCTURE
     1 RAI         1 TEMP              0 ****  ****    0 ROOT
