@<TRIPOS>MOLECULE
molecule
   68    71     1     0     0
SMALL
bcc


@<TRIPOS>ATOM
      1 C28          0.0000     0.0000     0.0000 c3         1 RAJ       0.149100
      2 N6           1.4710     0.0000     0.0000 n3         1 RAJ      -0.729600
      3 C29          1.9620     0.0000     1.3870 c3         1 RAJ       0.149100
      4 C27          1.9950     1.1140    -0.7410 c3         1 RAJ       0.166800
      5 C26          1.5660     1.0990    -2.2070 c3         1 RAJ      -0.072400
      6 C25          2.0330    -0.1330    -2.9940 c3         1 RAJ      -0.033100
      7 C20          1.6320    -0.1160    -4.4480 ca         1 RAJ      -0.055300
      8 C19          0.4220    -0.6770    -4.8270 ca         1 RAJ      -0.155000
      9 C21          2.4830     0.4590    -5.3810 ca         1 RAJ      -0.113000
     10 C22          2.1130     0.4740    -6.7260 ca         1 RAJ      -0.155300
     11 C24          3.0160     1.0880    -7.7410 c3         1 RAJ       0.702200
     12 F2           4.1690     1.5960    -7.2120 f          1 RAJ      -0.235633
     13 F3           3.4240     0.2160    -8.7100 f          1 RAJ      -0.235633
     14 F1           2.4300     2.1270    -8.4050 f          1 RAJ      -0.235633
     15 C23          0.8980    -0.0860    -7.1210 ca         1 RAJ      -0.124000
     16 C18          0.0530    -0.6610    -6.1720 ca         1 RAJ       0.079600
     17 N5          -1.1630    -1.2210    -6.5690 ns         1 RAJ      -0.488100
     18 C17         -1.7090    -1.3030    -7.8650 c          1 RAJ       0.690700
     19 O1          -1.1540    -0.8680    -8.8710 o          1 RAJ      -0.568100
     20 C12         -3.0430    -1.9230    -7.9430 ca         1 RAJ      -0.132600
     21 C11         -3.8860    -1.8600    -6.8460 ca         1 RAJ      -0.129000
     22 C13         -3.4290    -2.5590    -9.1130 ca         1 RAJ      -0.093000
     23 C14         -4.6900    -3.1470    -9.1870 ca         1 RAJ      -0.110000
     24 C15         -5.5510    -3.0920    -8.0900 ca         1 RAJ      -0.098300
     25 C16         -6.8970    -3.7310    -8.1980 c3         1 RAJ      -0.053800
     26 C10         -5.1490    -2.4480    -6.9200 ca         1 RAJ       0.184600
     27 N4          -6.0080    -2.3830    -5.8000 nu         1 RAJ      -0.791300
     28 C9          -5.7630    -2.3280    -4.4160 ca         1 RAJ       0.701200
     29 N3          -4.6410    -2.9280    -3.9480 nb         1 RAJ      -0.705000
     30 C8          -4.4250    -2.8610    -2.6140 ca         1 RAJ       0.437200
     31 C7          -5.2730    -2.2250    -1.7220 ca         1 RAJ      -0.287300
     32 C6          -6.4160    -1.6180    -2.2310 ca         1 RAJ      -0.034000
     33 C5          -6.6720    -1.6660    -3.5960 cp         1 RAJ      -0.319800
     34 C3          -7.8650    -1.0300    -4.1200 cp         1 RAJ       0.483800
     35 C2          -7.8450     0.2870    -4.5220 ca         1 RAJ      -0.334600
     36 C1          -9.0430     0.7770    -5.0010 ca         1 RAJ       0.426200
     37 N2         -10.1730     0.0460    -5.0830 nb         1 RAJ      -0.678000
     38 C4         -10.0600    -1.2260    -4.6570 ca         1 RAJ       0.626900
     39 N1          -8.9540    -1.8210    -4.1710 nb         1 RAJ      -0.680000
     40 H281        -0.3610    -0.5050     0.8880 h1         1 RAJ       0.032033
     41 H282        -0.3610    -0.5170    -0.8810 h1         1 RAJ       0.032033
     42 H283        -0.3610     1.0210    -0.0070 h1         1 RAJ       0.032033
     43 H291         3.0450     0.0450     1.3870 h1         1 RAJ       0.032033
     44 H292         1.6390    -0.9060     1.8850 h1         1 RAJ       0.032033
     45 H293         1.5650     0.8610     1.9110 h1         1 RAJ       0.032033
     46 H271         3.0770     1.0880    -0.6940 h1         1 RAJ       0.032700
     47 H272         1.6470     2.0330    -0.2840 h1         1 RAJ       0.032700
     48 H261         0.4840     1.1420    -2.2470 hc         1 RAJ       0.043200
     49 H262         1.9630     1.9850    -2.6890 hc         1 RAJ       0.043200
     50 H251         1.6130    -1.0180    -2.5310 hc         1 RAJ       0.056200
     51 H252         3.1130    -0.1910    -2.9350 hc         1 RAJ       0.056200
     52 H19         -0.2300    -1.1220    -4.0860 ha         1 RAJ       0.137000
     53 H21          3.4830     0.7570    -5.0910 ha         1 RAJ       0.151000
     54 H23          0.6110    -0.0740    -8.1650 ha         1 RAJ       0.186000
     55 HN5         -1.7190    -1.6160    -5.8360 hn         1 RAJ       0.323500
     56 H11         -3.5680    -1.3580    -5.9390 ha         1 RAJ       0.144000
     57 H13         -2.7560    -2.5980    -9.9610 ha         1 RAJ       0.157000
     58 H14         -5.0020    -3.6460   -10.0960 ha         1 RAJ       0.143000
     59 H161        -6.9360    -4.3430    -9.0910 hc         1 RAJ       0.049367
     60 H162        -7.0730    -4.3510    -7.3270 hc         1 RAJ       0.049367
     61 H163        -7.6580    -2.9620    -8.2530 hc         1 RAJ       0.049367
     62 HN4         -6.9800    -2.3740    -6.0380 hn         1 RAJ       0.437800
     63 H8          -3.5340    -3.3340    -2.2190 h4         1 RAJ       0.023100
     64 H7          -5.0520    -2.2010    -0.6620 ha         1 RAJ       0.150000
     65 H6          -7.1040    -1.1100    -1.5660 ha         1 RAJ       0.144000
     66 H2          -6.9510     0.8960    -4.4660 ha         1 RAJ       0.165000
     67 H1          -9.0770     1.8090    -5.3300 h4         1 RAJ       0.027100
     68 H4         -10.9530    -1.8370    -4.7120 h5         1 RAJ       0.054100
@<TRIPOS>BOND
     1     1     2 1
     2     1    40 1
     3     1    41 1
     4     1    42 1
     5     2     3 1
     6     2     4 1
     7     3    43 1
     8     3    44 1
     9     3    45 1
    10     4     5 1
    11     4    46 1
    12     4    47 1
    13     5     6 1
    14     5    48 1
    15     5    49 1
    16     6     7 1
    17     6    50 1
    18     6    51 1
    19     7     9 ar
    20     7     8 ar
    21     8    16 ar
    22     8    52 1
    23     9    10 ar
    24     9    53 1
    25    10    11 1
    26    10    15 ar
    27    11    14 1
    28    11    12 1
    29    11    13 1
    30    15    16 ar
    31    15    54 1
    32    16    17 1
    33    17    18 1
    34    17    55 1
    35    18    19 2
    36    18    20 1
    37    20    22 ar
    38    20    21 ar
    39    21    26 ar
    40    21    56 1
    41    22    23 ar
    42    22    57 1
    43    23    24 ar
    44    23    58 1
    45    24    26 ar
    46    24    25 1
    47    25    59 1
    48    25    60 1
    49    25    61 1
    50    26    27 1
    51    27    28 1
    52    27    62 1
    53    28    29 ar
    54    28    33 ar
    55    29    30 ar
    56    30    31 ar
    57    30    63 1
    58    31    32 ar
    59    31    64 1
    60    32    33 ar
    61    32    65 1
    62    33    34 1
    63    34    39 ar
    64    34    35 ar
    65    35    36 ar
    66    35    66 1
    67    36    37 ar
    68    36    67 1
    69    37    38 ar
    70    38    39 ar
    71    38    68 1
@<TRIPOS>SUBSTRUCTURE
     1 RAJ         1 TEMP              0 ****  ****    0 ROOT
