@<TRIPOS>MOLECULE
molecule
   61    65     1     0     0
SMALL
bcc


@<TRIPOS>ATOM
      1 C1           0.0000     0.0000     0.0000 ca         1 RAL      -0.072000
      2 C2           1.3700     0.0000     0.0000 ca         1 RAL      -0.154000
      3 C3           2.0910     0.0000     1.1890 ca         1 RAL       0.121100
      4 O3           3.4500    -0.0020     1.1680 oh         1 RAL      -0.517100
      5 C4           1.4100     0.0010     2.3960 ca         1 RAL      -0.121000
      6 C5           0.0310     0.0020     2.4020 ca         1 RAL       0.017900
      7 S6          -1.1830     0.0030     3.6950 ss         1 RAL      -0.119500
      8 C7          -2.6620     0.0030     2.7030 cc         1 RAL       0.081400
      9 C8          -4.0670     0.0040     3.1530 ca         1 RAL      -0.045800
     10 C9          -4.4960     0.9320     4.1070 ca         1 RAL      -0.089500
     11 C10         -5.8080     0.9290     4.5250 ca         1 RAL      -0.155500
     12 C11         -6.7050     0.0060     4.0000 ca         1 RAL       0.118100
     13 O11         -7.9980     0.0070     4.4150 oh         1 RAL      -0.521100
     14 C12         -6.2800    -0.9210     3.0570 ca         1 RAL      -0.155500
     15 C13         -4.9710    -0.9230     2.6290 ca         1 RAL      -0.089500
     16 C14         -0.7220     0.0020     1.2140 ca         1 RAL      -0.076800
     17 C15         -2.1760    -0.0040     1.4030 cd         1 RAL      -0.168400
     18 C16         -3.0850    -0.0110     0.2560 c          1 RAL       0.611900
     19 O16         -3.4550    -1.0690    -0.2200 o          1 RAL      -0.527100
     20 C17         -3.5540     1.2640    -0.3220 ca         1 RAL      -0.217600
     21 C18         -4.3320     1.2610    -1.4810 ca         1 RAL      -0.036000
     22 C19         -4.7680     2.4530    -2.0180 ca         1 RAL      -0.211000
     23 C20         -4.4340     3.6550    -1.4070 ca         1 RAL       0.152100
     24 C21         -3.6610     3.6620    -0.2520 ca         1 RAL      -0.211000
     25 C22         -3.2260     2.4750     0.2930 ca         1 RAL      -0.036000
     26 O23         -4.8650     4.8280    -1.9380 os         1 RAL      -0.269900
     27 C24         -4.2680     5.8740    -1.1720 c3         1 RAL       0.114400
     28 C25         -4.6660     7.2290    -1.7590 c3         1 RAL       0.131800
     29 N26         -6.1280     7.3680    -1.7220 n3         1 RAL      -0.656600
     30 C27         -6.4420     8.6810    -2.2960 c3         1 RAL       0.133800
     31 C28         -7.9550     8.9030    -2.2840 c3         1 RAL      -0.076900
     32 C29         -8.4570     8.8780    -0.8380 c3         1 RAL      -0.083400
     33 C30         -8.0290     7.5590    -0.1860 c3         1 RAL      -0.076900
     34 C31         -6.5110     7.4070    -0.3060 c3         1 RAL       0.133800
     35 H1          -0.5350    -0.0000    -0.9420 ha         1 RAL       0.143000
     36 H2           1.9020     0.0000    -0.9440 ha         1 RAL       0.145000
     37 HO3          3.7640    -0.8900     1.2120 ho         1 RAL       0.423000
     38 H4           1.9580     0.0010     3.3310 ha         1 RAL       0.149000
     39 H9          -3.7980     1.6520     4.5160 ha         1 RAL       0.149500
     40 H10         -6.1420     1.6480     5.2630 ha         1 RAL       0.146000
     41 HO1         -8.0900    -0.5620     5.1610 ho         1 RAL       0.422000
     42 H12         -6.9830    -1.6400     2.6510 ha         1 RAL       0.146000
     43 H13         -4.6420    -1.6470     1.8940 ha         1 RAL       0.149500
     44 H18         -4.5930     0.3240    -1.9580 ha         1 RAL       0.148000
     45 H19         -5.3710     2.4530    -2.9180 ha         1 RAL       0.147000
     46 H21         -3.4050     4.6010     0.2230 ha         1 RAL       0.147000
     47 H22         -2.6230     2.4800     1.1930 ha         1 RAL       0.148000
     48 H241        -4.6100     5.8110    -0.1460 h1         1 RAL       0.044700
     49 H242        -3.1900     5.7720    -1.1990 h1         1 RAL       0.044700
     50 H251        -4.3230     7.2930    -2.7850 h1         1 RAL       0.048700
     51 H252        -4.2130     8.0220    -1.1770 h1         1 RAL       0.048700
     52 H271        -5.9610     9.4540    -1.7080 h1         1 RAL       0.035200
     53 H272        -6.0810     8.7220    -3.3170 h1         1 RAL       0.035200
     54 H281        -8.1820     9.8650    -2.7280 hc         1 RAL       0.050450
     55 H282        -8.4390     8.1150    -2.8480 hc         1 RAL       0.050450
     56 H291        -9.5370     8.9510    -0.8290 hc         1 RAL       0.040200
     57 H292        -8.0260     9.7080    -0.2910 hc         1 RAL       0.040200
     58 H301        -8.3080     7.5670     0.8610 hc         1 RAL       0.050450
     59 H302        -8.5150     6.7330    -0.6900 hc         1 RAL       0.050450
     60 H311        -6.2040     6.4860     0.1740 h1         1 RAL       0.035200
     61 H312        -6.0270     8.2490     0.1740 h1         1 RAL       0.035200
@<TRIPOS>BOND
     1     1     2 ar
     2     1    16 ar
     3     1    35 1
     4     2     3 ar
     5     2    36 1
     6     3     4 1
     7     3     5 ar
     8     4    37 1
     9     5     6 ar
    10     5    38 1
    11     6     7 1
    12     6    16 ar
    13     7     8 1
    14     8     9 1
    15     8    17 2
    16     9    10 ar
    17     9    15 ar
    18    10    11 ar
    19    10    39 1
    20    11    12 ar
    21    11    40 1
    22    12    13 1
    23    12    14 ar
    24    13    41 1
    25    14    15 ar
    26    14    42 1
    27    15    43 1
    28    16    17 1
    29    17    18 1
    30    18    19 2
    31    18    20 1
    32    20    21 ar
    33    20    25 ar
    34    21    22 ar
    35    21    44 1
    36    22    23 ar
    37    22    45 1
    38    23    24 ar
    39    23    26 1
    40    24    25 ar
    41    24    46 1
    42    25    47 1
    43    26    27 1
    44    27    28 1
    45    27    48 1
    46    27    49 1
    47    28    29 1
    48    28    50 1
    49    28    51 1
    50    29    30 1
    51    29    34 1
    52    30    31 1
    53    30    52 1
    54    30    53 1
    55    31    32 1
    56    31    54 1
    57    31    55 1
    58    32    33 1
    59    32    56 1
    60    32    57 1
    61    33    34 1
    62    33    58 1
    63    33    59 1
    64    34    60 1
    65    34    61 1
@<TRIPOS>SUBSTRUCTURE
     1 RAL         1 TEMP              0 ****  ****    0 ROOT
