@<TRIPOS>MOLECULE
RAN
   35    35     1     0     0
SMALL
bcc


@<TRIPOS>ATOM
      1 C1           0.0000     0.0000     0.0000 c3         1 RAN       0.353900
      2 O1          -0.4740    -1.1530     0.6980 oh         1 RAN      -0.608800
      3 C2           1.5300     0.0000     0.0000 c3         1 RAN       0.058500
      4 N2           2.0230    -1.2000    -0.6910 n7         1 RAN      -0.575200
      5 C7           2.1670    -0.8420    -2.1070 c3         1 RAN       0.334300
      6 O7           0.9450    -1.1150    -2.7950 oh         1 RAN      -0.618800
      7 C8           3.2980    -1.6660    -2.7290 c3         1 RAN      -0.036100
      8 C3           2.0320     0.0000     1.4480 c3         1 RAN       0.166100
      9 O3           3.4510     0.1530     1.4700 oh         1 RAN      -0.600800
     10 C4           1.3760     1.1690     2.1940 c3         1 RAN       0.140100
     11 O4           1.7120     1.1000     3.5800 oh         1 RAN      -0.567800
     12 C5          -0.1420     1.0790     2.0270 c3         1 RAN       0.122100
     13 O5          -0.4840     1.1740     0.6470 os         1 RAN      -0.350600
     14 C6          -0.8050     2.2240     2.7950 c3         1 RAN       0.233400
     15 O6          -2.2230     2.1400     2.6480 os         1 RAN      -0.449200
     16 P           -2.8510     3.3680     3.4780 p5         1 RAN       0.668900
     17 O1P         -2.3410     4.6440     2.9290 o          1 RAN      -0.765167
     18 O2P         -4.4560     3.3340     3.3540 o          1 RAN      -0.765167
     19 O3P         -2.4300     3.2420     5.0240 o          1 RAN      -0.765167
     20 H1          -0.3580    -0.0190    -1.0220 h2         1 RAN       0.009700
     21 HO1         -1.2610    -1.4680     0.2860 ho         1 RAN       0.395000
     22 H2           1.8900     0.8880    -0.5060 h1         1 RAN       0.053700
     23 HN2          1.3520    -1.9370    -0.6000 hn         1 RAN       0.280800
     24 H7           2.4010     0.2130    -2.1910 h2         1 RAN       0.017700
     25 HO7          0.9760    -0.7310    -3.6560 ho         1 RAN       0.391000
     26 H81          4.0620    -1.0000    -3.1110 hc         1 RAN       0.006033
     27 H82          2.9030    -2.2660    -3.5390 hc         1 RAN       0.006033
     28 H83          3.7280    -2.3150    -1.9750 hc         1 RAN       0.006033
     29 H3           1.7560    -0.9330     1.9250 h1         1 RAN       0.023700
     30 HO3          3.8280    -0.4850     2.0530 ho         1 RAN       0.379000
     31 H4           1.7290     2.1040     1.7770 h1         1 RAN       0.014700
     32 HO4          2.3890     1.7280     3.7710 ho         1 RAN       0.377000
     33 H5          -0.4890     0.1300     2.4170 h1         1 RAN       0.037700
     34 H61         -0.4560     3.1710     2.4030 h1         1 RAN       0.013200
     35 H62         -0.5460     2.1510     3.8450 h1         1 RAN       0.013200
@<TRIPOS>BOND
     1     1     2 1   
     2     1     3 1   
     3     1    13 1   
     4     1    20 1   
     5     2    21 1   
     6     3     4 1   
     7     3     8 1   
     8     3    22 1   
     9     4     5 1   
    10     4    23 1   
    11     5     6 1   
    12     5     7 1   
    13     5    24 1   
    14     6    25 1   
    15     7    26 1   
    16     7    27 1   
    17     7    28 1   
    18     8     9 1   
    19     8    10 1   
    20     8    29 1   
    21     9    30 1   
    22    10    11 1   
    23    10    12 1   
    24    10    31 1   
    25    11    32 1   
    26    12    13 1   
    27    12    14 1   
    28    12    33 1   
    29    14    15 1   
    30    14    34 1   
    31    14    35 1   
    32    15    16 1   
    33    16    17 1   
    34    16    18 1   
    35    16    19 1   
@<TRIPOS>SUBSTRUCTURE
     1 RAN         1 TEMP              0 ****  ****    0 ROOT
