@<TRIPOS>MOLECULE
molecule
   66    69     1     0     0
SMALL
bcc


@<TRIPOS>ATOM
      1 N01          0.0000     0.0000     0.0000 nv         1 RAR      -1.048500
      2 C02          1.3860     0.0000     0.0000 ca         1 RAR       0.769200
      3 C03          2.0940     0.0000     1.2040 ca         1 RAR      -0.425900
      4 C04          1.3690    -0.0020     2.5240 c3         1 RAR       0.039200
      5 C05          1.0190    -1.4170     2.9050 ca         1 RAR      -0.046300
      6 C06          1.9090    -2.1690     3.6550 ca         1 RAR      -0.202000
      7 C07          1.6000    -3.4720     4.0100 ca         1 RAR       0.124100
      8 O08          2.4790    -4.2020     4.7460 os         1 RAR      -0.314900
      9 C09          3.7030    -3.5640     5.1170 c3         1 RAR       0.126700
     10 C10          0.3900    -4.0320     3.6150 ca         1 RAR       0.099100
     11 O11          0.0830    -5.3090     3.9630 os         1 RAR      -0.336900
     12 C12         -0.6080    -5.4950     5.2000 c3         1 RAR       0.133700
     13 C13         -0.5110    -3.2720     2.8570 ca         1 RAR      -0.062800
     14 C14         -1.7930    -3.8510     2.4340 ce         1 RAR      -0.022200
     15 C15         -2.6590    -3.1160     1.7030 cf         1 RAR      -0.240200
     16 C16         -3.9340    -3.6930     1.2810 c          1 RAR       0.698300
     17 N17         -4.7980    -2.9590     0.5520 n          1 RAR      -0.249800
     18 N18         -4.4770    -1.6410     0.1960 n2         1 RAR      -0.449300
     19 C19         -4.9100    -1.1480    -0.9260 ce         1 RAR       0.416800
     20 C20         -6.0780    -3.5360     0.1220 c3         1 RAR       0.140000
     21 C21         -7.2070    -2.9990     1.0040 c3         1 RAR      -0.089400
     22 C22         -7.0070    -3.4860     2.4400 c3         1 RAR      -0.082400
     23 C23         -8.1350    -2.9490     3.3230 c3         1 RAR      -0.092100
     24 C24         -6.3250    -3.1430    -1.3140 ca         1 RAR      -0.074300
     25 C25         -5.7610    -1.9690    -1.8050 ca         1 RAR      -0.178900
     26 C26         -6.0020    -1.5870    -3.1240 ca         1 RAR      -0.098000
     27 C27         -6.7910    -2.3800    -3.9320 ca         1 RAR      -0.131000
     28 C28         -7.3430    -3.5490    -3.4370 ca         1 RAR      -0.109000
     29 C29         -7.1030    -3.9280    -2.1340 ca         1 RAR      -0.118000
     30 O30         -4.2160    -4.8380     1.5890 o          1 RAR      -0.609100
     31 C31         -0.1860    -1.9550     2.5090 ca         1 RAR      -0.133000
     32 C32          3.4740     0.0000     1.1560 ca         1 RAR       0.518200
     33 N33          4.0820     0.0010    -0.0210 nb         1 RAR      -0.820000
     34 C34          3.3850     0.0010    -1.1480 ca         1 RAR       0.965900
     35 N35          4.0570     0.0010    -2.3580 nv         1 RAR      -0.990500
     36 N36          2.0600    -0.0050    -1.1450 nb         1 RAR      -0.841000
     37 HN01        -0.5000    -0.6740    -0.5460 hn         1 RAR       0.441800
     38 HN0A        -0.5000     0.7070     0.5020 hn         1 RAR       0.441800
     39 H04          2.0050     0.4300     3.2870 hc         1 RAR       0.049700
     40 H04A         0.4610     0.5840     2.4380 hc         1 RAR       0.049700
     41 H06          2.8530    -1.7360     3.9650 ha         1 RAR       0.137000
     42 H09          4.2580    -3.3010     4.2250 h1         1 RAR       0.041700
     43 H09A         3.4840    -2.6660     5.6830 h1         1 RAR       0.041700
     44 H09B         4.2930    -4.2390     5.7240 h1         1 RAR       0.041700
     45 H12          0.0710    -5.9090     5.9350 h1         1 RAR       0.037367
     46 H12A        -1.4370    -6.1770     5.0510 h1         1 RAR       0.037367
     47 H12B        -0.9840    -4.5420     5.5510 h1         1 RAR       0.037367
     48 H14         -2.0440    -4.8690     2.7080 ha         1 RAR       0.165000
     49 H15         -2.4090    -2.0990     1.4290 ha         1 RAR       0.146000
     50 H19         -4.6630    -0.1300    -1.2030 h4         1 RAR       0.048800
     51 H20         -6.0320    -4.6160     0.1980 h1         1 RAR       0.104700
     52 H21         -7.1950    -1.9160     0.9850 hc         1 RAR       0.051200
     53 H21A        -8.1580    -3.3570     0.6300 hc         1 RAR       0.051200
     54 H22         -7.0190    -4.5690     2.4590 hc         1 RAR       0.051700
     55 H22A        -6.0550    -3.1290     2.8140 hc         1 RAR       0.051700
     56 H23         -8.2380    -1.8820     3.1670 hc         1 RAR       0.032367
     57 H23A        -9.0640    -3.4430     3.0630 hc         1 RAR       0.032367
     58 H23B        -7.9030    -3.1420     4.3630 hc         1 RAR       0.032367
     59 H26         -5.5710    -0.6730    -3.5140 ha         1 RAR       0.134000
     60 H27         -6.9820    -2.0850    -4.9570 ha         1 RAR       0.135000
     61 H28         -7.9620    -4.1670    -4.0760 ha         1 RAR       0.135000
     62 H29         -7.5370    -4.8440    -1.7510 ha         1 RAR       0.138000
     63 H31         -0.8780    -1.3620     1.9240 ha         1 RAR       0.144000
     64 H32          4.0530     0.0000     2.0710 h4         1 RAR       0.023100
     65 HN35         5.0580     0.0030    -2.3740 hn         1 RAR       0.449800
     66 HN3A         3.5420    -0.0020    -3.2160 hn         1 RAR       0.449800
@<TRIPOS>BOND
     1     2     1 1
     2     1    37 1
     3     1    38 1
     4     3     2 ar
     5    36     2 ar
     6    32     3 ar
     7     3     4 1
     8     5     4 1
     9     4    39 1
    10     4    40 1
    11     6     5 ar
    12    31     5 ar
    13     7     6 ar
    14     6    41 1
    15     8     7 1
    16    10     7 ar
    17     8     9 1
    18     9    42 1
    19     9    43 1
    20     9    44 1
    21    11    10 1
    22    10    13 ar
    23    12    11 1
    24    12    45 1
    25    12    46 1
    26    12    47 1
    27    14    13 1
    28    13    31 ar
    29    15    14 2
    30    14    48 1
    31    16    15 1
    32    15    49 1
    33    30    16 2
    34    16    17 1
    35    20    17 1
    36    17    18 1
    37    18    19 2
    38    19    25 1
    39    19    50 1
    40    21    20 1
    41    20    24 1
    42    20    51 1
    43    22    21 1
    44    21    52 1
    45    21    53 1
    46    23    22 1
    47    22    54 1
    48    22    55 1
    49    23    56 1
    50    23    57 1
    51    23    58 1
    52    24    29 ar
    53    24    25 ar
    54    25    26 ar
    55    26    27 ar
    56    26    59 1
    57    28    27 ar
    58    27    60 1
    59    29    28 ar
    60    28    61 1
    61    29    62 1
    62    31    63 1
    63    33    32 ar
    64    32    64 1
    65    33    34 ar
    66    35    34 1
    67    34    36 ar
    68    35    65 1
    69    35    66 1
@<TRIPOS>SUBSTRUCTURE
     1 RAR         1 TEMP              0 ****  ****    0 ROOT
