@<TRIPOS>MOLECULE
RAR
   66    71     1     0     0
SMALL
bcc


@<TRIPOS>ATOM
      1 N01          0.0000     0.0000     0.0000 nv         1 RAR       0.065000
      2 C02          1.3860     0.0000     0.0000 c2         1 RAR       0.067000
      3 C03          2.0940     0.0000     1.2040 c2         1 RAR      -0.338000
      4 C04          1.3690    -0.0020     2.5240 c3         1 RAR       0.029000
      5 C05          1.0190    -1.4170     2.9050 c2         1 RAR      -0.009000
      6 C06          1.9090    -2.1690     3.6550 c2         1 RAR      -0.237000
      7 C07          1.6000    -3.4720     4.0100 c2         1 RAR       0.125000
      8 O08          2.4790    -4.2020     4.7460 os         1 RAR      -0.175000
      9 C09          3.7030    -3.5640     5.1170 c3         1 RAR       0.050000
     10 C10          0.3900    -4.0320     3.6150 c2         1 RAR      -0.029000
     11 O11          0.0830    -5.3090     3.9630 os         1 RAR      -0.196000
     12 C12         -0.6080    -5.4950     5.2000 c3         1 RAR       0.058000
     13 C13         -0.5110    -3.2720     2.8570 c3         1 RAR       0.027000
     14 C14         -1.7930    -3.8510     2.4340 c2         1 RAR       0.020000
     15 C15         -2.6590    -3.1160     1.7030 c2         1 RAR      -0.096000
     16 C16         -3.9340    -3.6930     1.2810 c3         1 RAR       0.378000
     17 N17         -4.7980    -2.9590     0.5520 n3         1 RAR       0.017000
     18 N18         -4.4770    -1.6410     0.1960 n2         1 RAR      -0.095000
     19 C19         -4.9100    -1.1480    -0.9260 c2         1 RAR      -0.036000
     20 C20         -6.0780    -3.5360     0.1220 c3         1 RAR      -0.016000
     21 C21         -7.2070    -2.9990     1.0040 c3         1 RAR      -0.119000
     22 C22         -7.0070    -3.4860     2.4400 c3         1 RAR      -0.115000
     23 C23         -8.1350    -2.9490     3.3230 c3         1 RAR      -0.110000
     24 C24         -6.3250    -3.1430    -1.3140 ca         1 RAR      -0.078000
     25 C25         -5.7610    -1.9690    -1.8050 ca         1 RAR      -0.104000
     26 C26         -6.0020    -1.5870    -3.1240 ca         1 RAR      -0.063000
     27 C27         -6.7910    -2.3800    -3.9320 ca         1 RAR      -0.103000
     28 C28         -7.3430    -3.5490    -3.4370 ca         1 RAR      -0.078000
     29 C29         -7.1030    -3.9280    -2.1340 ca         1 RAR      -0.087000
     30 O30         -4.2160    -4.8380     1.5890 o          1 RAR      -0.440000
     31 C31         -0.1860    -1.9550     2.5090 c2         1 RAR      -0.199000
     32 C32          3.4740     0.0000     1.1560 c2         1 RAR       0.069000
     33 N33          4.0820     0.0010    -0.0210 n2         1 RAR      -0.222000
     34 C34          3.3850     0.0010    -1.1480 c2         1 RAR       0.028000
     35 N35          4.0570     0.0010    -2.3580 nv         1 RAR       0.102000
     36 N36          2.0600    -0.0050    -1.1450 n2         1 RAR      -0.242000
     37 HN01        -0.5000    -0.2530    -0.8300 hn         1 RAR       0.073500
     38 HN0A        -0.5000     0.3190     0.8060 hn         1 RAR       0.073500
     39 H04          2.0060     0.4300     3.2870 hc         1 RAR       0.057500
     40 H04A         0.4610     0.5840     2.4390 hc         1 RAR       0.057500
     41 H06          2.8600    -1.7420     3.9510 ha         1 RAR       0.128000
     42 H09          4.2920    -4.2390     5.7250 h1         1 RAR       0.037667
     43 H09A         4.2590    -3.3020     4.2250 h1         1 RAR       0.037667
     44 H09B         3.4840    -2.6650     5.6820 h1         1 RAR       0.037667
     45 H12          0.0710    -5.9090     5.9350 h1         1 RAR       0.032333
     46 H12A        -1.4370    -6.1770     5.0510 h1         1 RAR       0.032333
     47 H12B        -0.9840    -4.5420     5.5510 h1         1 RAR       0.032333
     48 H14         -0.9290    -3.7400     1.7890 DU         1 RAR       0.093000
     49 H15         -2.7750    -3.8080     0.8770 DU         1 RAR       0.016000
     50 H19         -4.6630    -0.1300    -1.2030 h4         1 RAR       0.129000
     51 H20         -6.0320    -4.6160     0.1980 h1         1 RAR       0.118000
     52 H21         -8.1580    -3.3570     0.6300 hc         1 RAR       0.063500
     53 H21A        -7.1960    -1.9160     0.9850 hc         1 RAR       0.063500
     54 H22         -6.0550    -3.1290     2.8140 hc         1 RAR       0.065500
     55 H22A        -7.0190    -4.5690     2.4590 hc         1 RAR       0.065500
     56 H23         -8.1340    -1.8660     3.2900 hc         1 RAR       0.039667
     57 H23A        -7.9840    -3.2800     4.3430 hc         1 RAR       0.039667
     58 H23B        -9.0860    -3.3210     2.9600 hc         1 RAR       0.039667
     59 H26         -5.5710    -0.6730    -3.5140 ha         1 RAR       0.108000
     60 H27         -6.9820    -2.0850    -4.9570 ha         1 RAR       0.108000
     61 H28         -7.9620    -4.1670    -4.0760 ha         1 RAR       0.107000
     62 H29         -7.5370    -4.8440    -1.7510 ha         1 RAR       0.113000
     63 H31         -0.8780    -1.3620     1.9240 ha         1 RAR       0.129000
     64 H32          4.0530     0.0000     2.0710 h4         1 RAR       0.113000
     65 HN35         3.5420     0.0040    -3.2160 hn         1 RAR       0.068500
     66 HN3A         5.0580     0.0040    -2.3740 hn         1 RAR       0.068500
@<TRIPOS>BOND
     1     1     2 1   
     2     1    37 1   
     3     1    38 1   
     4     2     3 1   
     5     2    36 1   
     6     3     4 1   
     7     3    32 1   
     8     4     5 1   
     9     4    39 1   
    10     4    40 1   
    11     5     6 1   
    12     5    31 1   
    13     6     7 1   
    14     6    41 1   
    15     7     8 1   
    16     7    10 1   
    17     8     9 1   
    18     9    42 1   
    19     9    43 1   
    20     9    44 1   
    21    10    11 1   
    22    10    13 1   
    23    11    12 1   
    24    12    45 1   
    25    12    46 1   
    26    12    47 1   
    27    13    14 1   
    28    13    31 1   
    29    13    48 1   
    30    14    15 1   
    31    14    48 1   
    32    15    16 1   
    33    15    49 1   
    34    16    17 1   
    35    16    30 1   
    36    16    49 1   
    37    17    18 1   
    38    17    20 1   
    39    18    19 1   
    40    19    25 1   
    41    19    50 1   
    42    20    21 1   
    43    20    24 1   
    44    20    51 1   
    45    21    22 1   
    46    21    52 1   
    47    21    53 1   
    48    22    23 1   
    49    22    54 1   
    50    22    55 1   
    51    23    56 1   
    52    23    57 1   
    53    23    58 1   
    54    24    25 1   
    55    24    29 1   
    56    25    26 1   
    57    26    27 1   
    58    26    59 1   
    59    27    28 1   
    60    27    60 1   
    61    28    29 1   
    62    28    61 1   
    63    29    62 1   
    64    31    63 1   
    65    32    33 1   
    66    32    64 1   
    67    33    34 1   
    68    34    35 1   
    69    34    36 1   
    70    35    65 1   
    71    35    66 1   
@<TRIPOS>SUBSTRUCTURE
     1 RAR         1 TEMP              0 ****  ****    0 ROOT
