@<TRIPOS>MOLECULE
molecule
   28    29     1     0     0
SMALL
bcc


@<TRIPOS>ATOM
      1 N10          0.0000     0.0000     0.0000 n7         1 RAS      -0.804200
      2 C11         -0.5270    -0.5790    -1.2430 c3         1 RAS       0.185000
      3 C12         -2.0330    -0.5630    -1.2060 c2         1 RAS      -0.171200
      4 C13         -2.7060     0.0120    -2.1710 c2         1 RAS      -0.210000
      5 C9           1.4690     0.0000     0.0000 c3         1 RAS       0.208800
      6 C1           2.0040     0.0000     1.4470 c3         1 RAS      -0.088400
      7 C2           3.2820     0.8590     1.3280 c3         1 RAS      -0.033100
      8 C3           3.0350     1.7720     0.1460 ca         1 RAS      -0.093300
      9 C8           1.9940     1.2790    -0.6170 ca         1 RAS      -0.074300
     10 C7           1.5910     1.9580    -1.7550 ca         1 RAS      -0.100000
     11 C4           3.6710     2.9430    -0.2310 ca         1 RAS      -0.116000
     12 C5           3.2690     3.6180    -1.3670 ca         1 RAS      -0.127000
     13 C6           2.2280     3.1250    -2.1300 ca         1 RAS      -0.132000
     14 H10         -0.3340    -0.5280     0.7820 hn         1 RAS       0.354800
     15 H111        -0.1800     0.0020    -2.0880 h1         1 RAS       0.037700
     16 H112        -0.1800    -1.6010    -1.3410 h1         1 RAS       0.037700
     17 H13         -3.7890     0.0240    -2.1440 ha         1 RAS       0.112500
     18 H9           1.8500    -0.8590    -0.5390 h1         1 RAS       0.038700
     19 H11          2.2610    -1.0080     1.7490 hc         1 RAS       0.056700
     20 H12          1.2930     0.4810     2.1070 hc         1 RAS       0.056700
     21 H21          3.4050     1.4530     2.2260 hc         1 RAS       0.055200
     22 H22          4.1320     0.2200     1.1220 hc         1 RAS       0.055200
     23 H7           0.7750     1.5720    -2.3540 ha         1 RAS       0.130000
     24 H4           4.4880     3.3300     0.3660 ha         1 RAS       0.127000
     25 H5           3.7690     4.5340    -1.6600 ha         1 RAS       0.129000
     26 H6           1.9110     3.6530    -3.0210 ha         1 RAS       0.129000
     27 H24         -2.5590    -1.0260    -0.3800 ha         1 RAS       0.122000
     28 H23         -2.1800     0.4760    -2.9970 ha         1 RAS       0.112500
@<TRIPOS>BOND
     1     1     2 1
     2     1     5 1
     3     1    14 1
     4     2     3 1
     5     2    15 1
     6     2    16 1
     7     3     4 2
     8     4    17 1
     9     5     6 1
    10     5     9 1
    11     5    18 1
    12     6     7 1
    13     6    19 1
    14     6    20 1
    15     7     8 1
    16     7    21 1
    17     7    22 1
    18     8     9 ar
    19     8    11 ar
    20     9    10 ar
    21    10    13 ar
    22    10    23 1
    23    11    12 ar
    24    11    24 1
    25    12    13 ar
    26    12    25 1
    27    13    26 1
    28     3    27 1
    29     4    28 1
@<TRIPOS>SUBSTRUCTURE
     1 RAS         1 TEMP              0 ****  ****    0 ROOT
