@<TRIPOS>MOLECULE
molecule
   26    27     1     0     0
SMALL
bcc


@<TRIPOS>ATOM
      1 CAH          0.0000     0.0000     0.0000 c3         1 RAU      -0.098400
      2 CAG          1.5430     0.0000     0.0000 c3         1 RAU      -0.062100
      3 CAE          1.9380     0.0000     1.4610 ca         1 RAU      -0.074300
      4 CAD          3.1450    -0.3120     2.0640 ca         1 RAU      -0.125000
      5 CAC          3.2750    -0.2410     3.4380 ca         1 RAU      -0.123000
      6 CAB          2.1970     0.1430     4.2140 ca         1 RAU      -0.135000
      7 CAA          0.9930     0.4550     3.6150 ca         1 RAU      -0.097000
      8 CAF          0.8600     0.3840     2.2370 ca         1 RAU      -0.088300
      9 CAI         -0.3330     0.6690     1.3510 c3         1 RAU       0.231800
     10 NAJ         -1.5480     0.0790     1.9270 n7         1 RAU      -0.822200
     11 CAK         -2.2100     1.0210     2.8380 c3         1 RAU       0.171900
     12 CAL         -3.4210     0.3970     3.3950 c1         1 RAU      -0.120100
     13 CAM         -4.3950    -0.1040     3.8200 c1         1 RAU      -0.167500
     14 HAH1        -0.3600     0.9030    -0.4780 hc         1 RAU       0.057700
     15 HAH2        -0.3600    -0.9030    -0.4790 hc         1 RAU       0.057700
     16 HAG1         1.8970     0.5910    -0.8360 hc         1 RAU       0.065700
     17 HAG2         1.8970    -1.0230    -0.0370 hc         1 RAU       0.065700
     18 HAI         -0.4540     1.7370     1.2190 h1         1 RAU       0.041700
     19 HAD          3.9910    -0.6150     1.4590 ha         1 RAU       0.127000
     20 HAC          4.2210    -0.4860     3.9060 ha         1 RAU       0.129000
     21 HAB          2.2990     0.2000     5.2910 ha         1 RAU       0.129000
     22 HAA          0.1500     0.7550     4.2240 ha         1 RAU       0.128000
     23 HAJ         -2.1280    -0.2760     1.1910 hn         1 RAU       0.376800
     24 HAK1        -1.8270     2.0200     2.6650 h1         1 RAU       0.082200
     25 HAK2        -2.0130     0.7310     3.8630 h1         1 RAU       0.082200
     26 HAM         -5.2930    -0.5540     4.2270 ha         1 RAU       0.167500
@<TRIPOS>BOND
     1     1     2 1
     2     1     9 1
     3     2     3 1
     4     3     4 ar
     5     3     8 ar
     6     4     5 ar
     7     5     6 ar
     8     6     7 ar
     9     7     8 ar
    10     8     9 1
    11     9    10 1
    12    10    11 1
    13    11    12 1
    14    12    13 3
    15     1    14 1
    16     1    15 1
    17     2    16 1
    18     2    17 1
    19     9    18 1
    20     4    19 1
    21     5    20 1
    22     6    21 1
    23     7    22 1
    24    10    23 1
    25    11    24 1
    26    11    25 1
    27    13    26 1
@<TRIPOS>SUBSTRUCTURE
     1 RAU         1 TEMP              0 ****  ****    0 ROOT
