@<TRIPOS>MOLECULE
molecule
   34    34     1     0     0
SMALL
bcc


@<TRIPOS>ATOM
      1 C1           0.0000     0.0000     0.0000 c3         1 RAV      -0.220000
      2 C2           1.5170     0.0000     0.0000 c          1 RAV       0.715500
      3 N3           2.1410     0.0000     1.1970 ns         1 RAV      -0.572500
      4 C4           1.4620    -0.0010     2.3500 c          1 RAV       0.817500
      5 N5           0.1270    -0.0020     2.4500 ns         1 RAV      -0.572500
      6 C6          -0.6670    -0.0030     1.3630 c          1 RAV       0.715500
      7 O7          -1.8750    -0.0030     1.4660 o          1 RAV      -0.584000
      8 O8           2.1460     0.0000    -1.0360 o          1 RAV      -0.584000
      9 O9           2.1030    -0.0020     3.3820 o          1 RAV      -0.642500
     10 C12         -0.4760     1.2400    -0.7610 c3         1 RAV      -0.070400
     11 C13         -0.4750    -1.2360    -0.7660 c3         1 RAV      -0.056700
     12 C14         -0.1470    -2.4940     0.0410 c3         1 RAV      -0.101100
     13 C15         -1.9870    -1.1510    -0.9830 c3         1 RAV      -0.091400
     14 C16         -2.4440    -2.3220    -1.8550 c3         1 RAV      -0.083400
     15 C17         -3.9570    -2.2370    -2.0730 c3         1 RAV      -0.091100
     16 C18         -0.0170     2.4980    -0.0220 c3         1 RAV      -0.105100
     17 HN3          3.1410     0.0010     1.2230 hn         1 RAV       0.365500
     18 HN5         -0.2930    -0.0020     3.3580 hn         1 RAV       0.365500
     19 H12         -0.0560     1.2340    -1.7590 hc         1 RAV       0.074700
     20 H12A        -1.5570     1.2320    -0.8230 hc         1 RAV       0.074700
     21 H13          0.0260    -1.2810    -1.7260 hc         1 RAV       0.080700
     22 H14         -0.8660    -2.6060     0.8430 hc         1 RAV       0.042367
     23 H14A         0.8490    -2.4050     0.4580 hc         1 RAV       0.042367
     24 H14B        -0.1910    -3.3610    -0.6080 hc         1 RAV       0.042367
     25 H15         -2.2290    -0.2170    -1.4770 hc         1 RAV       0.063700
     26 H15A        -2.4920    -1.1940    -0.0260 hc         1 RAV       0.063700
     27 H16         -2.2030    -3.2550    -1.3610 hc         1 RAV       0.040200
     28 H16A        -1.9390    -2.2790    -2.8120 hc         1 RAV       0.040200
     29 H17         -4.1820    -1.3910    -2.7120 hc         1 RAV       0.034700
     30 H17A        -4.4530    -2.1110    -1.1190 hc         1 RAV       0.034700
     31 H17B        -4.3050    -3.1480    -2.5440 hc         1 RAV       0.034700
     32 H18         -0.3730     3.3760    -0.5490 hc         1 RAV       0.041700
     33 H18A         1.0650     2.5180     0.0210 hc         1 RAV       0.041700
     34 H18B        -0.4180     2.4940     0.9840 hc         1 RAV       0.041700
@<TRIPOS>BOND
     1     6     1 1
     2     2     1 1
     3     1    11 1
     4     1    10 1
     5     3     2 1
     6     2     8 2
     7     4     3 1
     8     3    17 1
     9     9     4 2
    10     4     5 1
    11     5     6 1
    12     5    18 1
    13     6     7 2
    14    10    16 1
    15    10    19 1
    16    10    20 1
    17    13    11 1
    18    11    12 1
    19    11    21 1
    20    12    22 1
    21    12    23 1
    22    12    24 1
    23    13    14 1
    24    13    25 1
    25    13    26 1
    26    15    14 1
    27    14    27 1
    28    14    28 1
    29    15    29 1
    30    15    30 1
    31    15    31 1
    32    16    32 1
    33    16    33 1
    34    16    34 1
@<TRIPOS>SUBSTRUCTURE
     1 RAV         1 TEMP              0 ****  ****    0 ROOT
