@<TRIPOS>MOLECULE
molecule
   41    41     1     0     0
SMALL
bcc


@<TRIPOS>ATOM
      1 C01          0.0000     0.0000     0.0000 c3         1 RAZ       0.102500
      2 C02          1.5300     0.0000     0.0000 c3         1 RAZ      -0.052200
      3 C03         -0.4840    -1.1060     0.9470 c3         1 RAZ      -0.100400
      4 C05          2.0480     0.0000     1.4080 c2         1 RAZ      -0.196200
      5 C07         -0.1080    -0.7160     2.3780 c3         1 RAZ      -0.036200
      6 N08         -0.4940    -0.2610    -1.3590 nx         1 RAZ      -0.658400
      7 C09         -3.9810    -0.3460    -2.7970 c2         1 RAZ      -0.504200
      8 C11         -1.9570    -0.1240    -1.3820 c3         1 RAZ       0.125800
      9 C14         -4.7240    -1.3350    -3.2300 c2         1 RAZ       0.119600
     10 C17         -4.0850    -2.5150    -3.9140 c3         1 RAZ      -0.110900
     11 C18         -6.2190    -1.2910    -3.0420 c3         1 RAZ      -0.110900
     12 C19          0.1030     0.7030    -2.2900 c3         1 RAZ       0.082100
     13 C31          1.3370    -0.3160     2.4420 c2         1 RAZ      -0.097400
     14 C32          2.0010    -0.2790     3.7950 c3         1 RAZ      -0.060900
     15 H01         -0.3630     0.9600     0.3470 hx         1 RAZ       0.115700
     16 H021         1.8880     0.8850    -0.5120 hc         1 RAZ       0.063700
     17 H022         1.8880    -0.8850    -0.5120 hc         1 RAZ       0.063700
     18 H031        -1.5600    -1.2070     0.8690 hc         1 RAZ       0.064700
     19 H032        -0.0040    -2.0420     0.6880 hc         1 RAZ       0.064700
     20 H05          3.0820     0.2820     1.5690 ha         1 RAZ       0.156000
     21 H071        -0.7240     0.1160     2.6950 hc         1 RAZ       0.077700
     22 H072        -0.2740    -1.5630     3.0340 hc         1 RAZ       0.077700
     23 H08         -0.2420    -1.1900    -1.6330 hn         1 RAZ       0.442800
     24 H09         -3.4040    -0.1150    -3.6840 ha         1 RAZ       0.283000
     25 H101        -2.2100    -1.5110    -3.0050 hc         1 RAZ       0.036700
     26 H102        -2.0430     0.1770    -3.5090 hc         1 RAZ       0.036700
     27 H111        -2.3940    -0.7890    -0.6470 hx         1 RAZ       0.115200
     28 H112        -2.2270     0.8990    -1.1510 hx         1 RAZ       0.115200
     29 H171        -4.8550    -3.1400    -4.3490 hc         1 RAZ       0.069700
     30 H172        -3.5190    -3.0890    -3.1910 hc         1 RAZ       0.069700
     31 H173        -3.4220    -2.1640    -4.6950 hc         1 RAZ       0.069700
     32 H181        -6.7050    -1.3010    -4.0100 hc         1 RAZ       0.069700
     33 H182        -6.5360    -2.1540    -2.4690 hc         1 RAZ       0.069700
     34 H183        -6.4890    -0.3860    -2.5110 hc         1 RAZ       0.069700
     35 H191         0.8700     0.2110    -2.8770 hx         1 RAZ       0.099367
     36 H192        -0.6630     1.0910    -2.9510 hx         1 RAZ       0.099367
     37 H193         0.5450     1.5200    -1.7320 hx         1 RAZ       0.099367
     38 H321         2.7360    -1.0730     3.8580 hc         1 RAZ       0.058033
     39 H322         1.2540    -0.4170     4.5670 hc         1 RAZ       0.058033
     40 H323         2.4900     0.6770     3.9310 hc         1 RAZ       0.058033
     41 C10         -2.4800    -0.4880    -2.7730 c3         1 RAZ      -0.105200
@<TRIPOS>BOND
     1     1     2 1
     2     1     3 1
     3     1     6 1
     4     1    15 1
     5     2     4 1
     6     2    16 1
     7     2    17 1
     8     3     5 1
     9     3    18 1
    10     3    19 1
    11     4    13 2
    12     4    20 1
    13     5    13 1
    14     5    21 1
    15     5    22 1
    16     6     8 1
    17     6    12 1
    18     6    23 1
    19     7    41 1
    20     7     9 2
    21     7    24 1
    22    41     8 1
    23    41    25 1
    24    41    26 1
    25     8    27 1
    26     8    28 1
    27     9    10 1
    28     9    11 1
    29    10    29 1
    30    10    30 1
    31    10    31 1
    32    11    32 1
    33    11    33 1
    34    11    34 1
    35    12    35 1
    36    12    36 1
    37    12    37 1
    38    13    14 1
    39    14    38 1
    40    14    39 1
    41    14    40 1
@<TRIPOS>SUBSTRUCTURE
     1 RAZ         1 TEMP              0 ****  ****    0 ROOT
