@<TRIPOS>MOLECULE
RAZ
   41    41     1     0     0
SMALL
bcc


@<TRIPOS>ATOM
      1 C01          0.0000     0.0000     0.0000 c3         1 RAZ      -0.060500
      2 C02          1.5300     0.0000     0.0000 c3         1 RAZ       0.030800
      3 C03         -0.4840    -1.1060     0.9470 c3         1 RAZ      -0.037400
      4 C05          2.0480     0.0000     1.4080 c2         1 RAZ      -0.187200
      5 C07         -0.1080    -0.7160     2.3780 c3         1 RAZ       0.040800
      6 N08         -0.4940    -0.2610    -1.3590 nx         1 RAZ       0.037600
      7 C09         -3.9810    -0.3460    -2.7970 c2         1 RAZ      -0.235200
      8 C11         -1.9570    -0.1240    -1.3820 c3         1 RAZ      -0.036200
      9 C14         -4.7240    -1.3350    -3.2300 c2         1 RAZ      -0.067400
     10 C17         -4.0850    -2.5150    -3.9140 c3         1 RAZ       0.046600
     11 C18         -6.2190    -1.2910    -3.0420 c3         1 RAZ       0.046600
     12 C19          0.1030     0.7030    -2.2900 c3         1 RAZ      -0.018900
     13 C31          1.3370    -0.3160     2.4420 c2         1 RAZ      -0.107400
     14 C32          2.0010    -0.2790     3.7950 c3         1 RAZ       0.052100
     15 H01         -0.3630     0.9600     0.3470 hx         1 RAZ       0.094700
     16 H021         1.8880    -0.8850    -0.5120 hc         1 RAZ       0.033200
     17 H022         1.8880     0.8850    -0.5120 hc         1 RAZ       0.033200
     18 H031        -1.5600    -1.2070     0.8690 hc         1 RAZ       0.036200
     19 H032        -0.0040    -2.0420     0.6880 hc         1 RAZ       0.036200
     20 H05          3.0830     0.2790     1.5690 ha         1 RAZ       0.134000
     21 H071        -0.2740    -1.5630     3.0340 hc         1 RAZ       0.042200
     22 H072        -0.7240     0.1160     2.6950 hc         1 RAZ       0.042200
     23 H08         -0.2420    -1.1900    -1.6330 hn         1 RAZ       0.256800
     24 H09         -4.4460     0.5000    -2.3060 ha         1 RAZ       0.125000
     25 H101        -2.2100    -1.5110    -3.0050 hc         1 RAZ       0.036700
     26 H102        -2.0430     0.1770    -3.5090 hc         1 RAZ       0.036700
     27 H111        -2.2270     0.8990    -1.1510 hx         1 RAZ       0.084700
     28 H112        -2.3940    -0.7890    -0.6470 hx         1 RAZ       0.084700
     29 H171        -3.5650    -3.1200    -3.1810 hc         1 RAZ       0.018533
     30 H172        -3.3800    -2.1630    -4.6580 hc         1 RAZ       0.018533
     31 H173        -4.8510    -3.1110    -4.3960 hc         1 RAZ       0.018533
     32 H181        -6.5790    -2.2780    -2.7790 hc         1 RAZ       0.018533
     33 H182        -6.6890    -0.9670    -3.9630 hc         1 RAZ       0.018533
     34 H183        -6.4620    -0.5950    -2.2480 hc         1 RAZ       0.018533
     35 H191         0.5040     1.5420    -1.7340 hx         1 RAZ       0.079367
     36 H192         0.9010     0.2230    -2.8450 hx         1 RAZ       0.079367
     37 H193        -0.6540     1.0560    -2.9800 hx         1 RAZ       0.079367
     38 H321         1.2430    -0.2530     4.5680 hc         1 RAZ       0.020700
     39 H322         2.6220     0.6050     3.8680 hc         1 RAZ       0.020700
     40 H323         2.6140    -1.1640     3.9200 hc         1 RAZ       0.020700
     41 C10         -2.4800    -0.4880    -2.7730 c3         1 RAZ       0.007800
@<TRIPOS>BOND
     1     1     2 1   
     2     1     3 1   
     3     1     6 1   
     4     1    15 1   
     5     2     4 1   
     6     2    16 1   
     7     2    17 1   
     8     3     5 1   
     9     3    18 1   
    10     3    19 1   
    11     4    13 2   
    12     4    20 1   
    13     5    13 1   
    14     5    21 1   
    15     5    22 1   
    16     6     8 1   
    17     6    12 1   
    18     6    23 1   
    19     7     9 2   
    20     7    24 1   
    21     7    41 1   
    22     8    27 1   
    23     8    28 1   
    24     8    41 1   
    25     9    10 1   
    26     9    11 1   
    27    10    29 1   
    28    10    30 1   
    29    10    31 1   
    30    11    32 1   
    31    11    33 1   
    32    11    34 1   
    33    12    35 1   
    34    12    36 1   
    35    12    37 1   
    36    13    14 1   
    37    14    38 1   
    38    14    39 1   
    39    14    40 1   
    40    25    41 1   
    41    26    41 1   
@<TRIPOS>SUBSTRUCTURE
     1 RAZ         1 TEMP              0 ****  ****    0 ROOT
