@<TRIPOS>MOLECULE
molecule
   22    21     1     0     0
SMALL
bcc


@<TRIPOS>ATOM
      1 C1           0.0000     0.0000     0.0000 c3         1 RB0       0.108400
      2 O1          -0.4760    -1.2210     0.5700 oh         1 RB0      -0.615300
      3 C2           1.5300     0.0000     0.0000 c3         1 RB0       0.149100
      4 O2           2.0070     0.0000     1.3480 oh         1 RB0      -0.556800
      5 C3           2.0400     1.2490    -0.7210 c3         1 RB0       0.156100
      6 O3           1.4700     2.4130    -0.1180 oh         1 RB0      -0.572800
      7 C4           3.5640     1.3140    -0.6130 c3         1 RB0       0.149100
      8 O4           3.9480     1.2540     0.7630 oh         1 RB0      -0.556800
      9 C5           4.0630     2.6250    -1.2250 c3         1 RB0       0.108400
     10 O5           5.4920     2.6350    -1.2300 oh         1 RB0      -0.615300
     11 H1          -0.3610     0.0890    -1.0170 h1         1 RB0       0.032200
     12 H1A         -0.3610     0.8370     0.5860 h1         1 RB0       0.032200
     13 HO1         -1.4100    -1.2810     0.4500 ho         1 RB0       0.405000
     14 H2           1.8910    -0.8850    -0.5110 h1         1 RB0       0.038700
     15 HO2          2.0330    -0.8850     1.6720 ho         1 RB0       0.401000
     16 H3           1.7530     1.2060    -1.7650 h1         1 RB0       0.036700
     17 HO3          0.9700     2.8870    -0.7610 ho         1 RB0       0.390000
     18 H4           4.0000     0.4780    -1.1460 h1         1 RB0       0.038700
     19 HO4          4.8270     0.9200     0.8300 ho         1 RB0       0.401000
     20 H5           3.6980     3.4590    -0.6380 h1         1 RB0       0.032200
     21 H5A          3.6980     2.7110    -2.2410 h1         1 RB0       0.032200
     22 HO5          5.8000     3.3760    -1.7240 ho         1 RB0       0.405000
@<TRIPOS>BOND
     1     1     2 1
     2     1     3 1
     3     3     4 1
     4     3     5 1
     5     5     6 1
     6     5     7 1
     7     7     8 1
     8     7     9 1
     9     9    10 1
    10     1    11 1
    11     1    12 1
    12     2    13 1
    13     3    14 1
    14     4    15 1
    15     5    16 1
    16     6    17 1
    17     7    18 1
    18     8    19 1
    19     9    20 1
    20     9    21 1
    21    10    22 1
@<TRIPOS>SUBSTRUCTURE
     1 RB0         1 TEMP              0 ****  ****    0 ROOT
