@<TRIPOS>MOLECULE
RB0
   22    21     1     0     0
SMALL
bcc


@<TRIPOS>ATOM
      1 C1         -0.0040   -0.0760   -0.3930 c3        1 RB0      0.089400
      2 O1         -0.4850   -1.2850    0.1730 oh        1 RB0     -0.613800
      3 C2          1.4660    0.0400    0.0300 c3        1 RB0      0.117100
      4 O2          1.5760    0.0270    1.4430 oh        1 RB0     -0.593800
      5 C3          2.0400    1.3820   -0.4590 c3        1 RB0      0.155100
      6 O3          1.6000    2.4500    0.3500 oh        1 RB0     -0.594800
      7 C4          3.5760    1.3440   -0.5430 c3        1 RB0      0.117100
      8 O4          4.0730    1.5570    0.7680 oh        1 RB0     -0.593800
      9 C5          4.0670    2.4490   -1.4870 c3        1 RB0      0.089400
     10 O5          5.4850    2.4130   -1.4360 oh        1 RB0     -0.613800
     11 H1         -0.0890   -0.1210   -1.5100 h1        1 RB0      0.041450
     12 H1A        -0.5800    0.8040   -0.0030 h1        1 RB0      0.041450
     13 HO1        -1.4460   -1.2680    0.0950 ho        1 RB0      0.410000
     14 H2          2.0490   -0.8200   -0.4000 h1        1 RB0      0.050700
     15 HO2         1.0960   -0.7540    1.7500 ho        1 RB0      0.423000
     16 H3          1.6250    1.6040   -1.4840 h1        1 RB0      0.069700
     17 HO3         1.9410    2.2880    1.2430 ho        1 RB0      0.440000
     18 H4          3.9270    0.3440   -0.9200 h1        1 RB0      0.050700
     19 HO4         5.0300    1.6660    0.6860 ho        1 RB0      0.423000
     20 H5          3.6800    3.4430   -1.1390 h1        1 RB0      0.041450
     21 H5A         3.7210    2.2520   -2.5350 h1        1 RB0      0.041450
     22 HO5         5.8000    3.2240   -1.8510 ho        1 RB0      0.410000
@<TRIPOS>BOND
     1    1    2 1   
     2    1    3 1   
     3    1   11 1   
     4    1   12 1   
     5    2   13 1   
     6    3    4 1   
     7    3    5 1   
     8    3   14 1   
     9    4   15 1   
    10    5    6 1   
    11    5    7 1   
    12    5   16 1   
    13    6   17 1   
    14    7    8 1   
    15    7    9 1   
    16    7   18 1   
    17    8   19 1   
    18    9   10 1   
    19    9   20 1   
    20    9   21 1   
    21   10   22 1   
@<TRIPOS>SUBSTRUCTURE
     1 RB0         1 TEMP              0 ****  ****    0 ROOT
