@<TRIPOS>MOLECULE
RB1
   41    43     1     0     0
SMALL
bcc


@<TRIPOS>ATOM
      1 C20          0.0000     0.0000     0.0000 c3         1 RB1      -0.012433
      2 C19          1.5300     0.0000     0.0000 c3         1 RB1      -0.045300
      3 C21          2.0410     0.0000     1.4430 c3         1 RB1      -0.012433
      4 C22          2.0400    -1.2490    -0.7210 c3         1 RB1      -0.012433
      5 N7           2.0190     1.1970    -0.6910 na         1 RB1       0.394200
      6 N8           1.2220     2.1950    -1.2660 nc         1 RB1      -0.628100
      7 C3           3.3260     1.5320    -0.8780 ca         1 RB1       0.333800
      8 N2           4.4920     0.9700    -0.5620 nb         1 RB1      -0.675000
      9 C1           5.6260     1.5440    -0.8940 ca         1 RB1       0.693900
     10 N6           5.6800     2.6880    -1.5540 nb         1 RB1      -0.723000
     11 C5           4.5720     3.3240    -1.9200 ca         1 RB1       0.617200
     12 N10          4.6370     4.5180    -2.6090 nv         1 RB1      -0.583500
     13 C4           3.3310     2.7490    -1.5870 ca         1 RB1      -0.532500
     14 C9           1.9820     3.1100    -1.7950 cd         1 RB1       0.426900
     15 C11          1.5010     4.3480    -2.5090 c3         1 RB1       0.032600
     16 C12          1.1890     4.0120    -3.9440 ca         1 RB1      -0.070300
     17 C13          2.1700     4.1220    -4.9090 ca         1 RB1      -0.135000
     18 C17         -0.0820     3.5960    -4.2950 ca         1 RB1      -0.106000
     19 C16         -0.3740     3.2860    -5.6100 ca         1 RB1      -0.077000
     20 C15          0.6070     3.3910    -6.5780 ca         1 RB1      -0.152000
     21 C14          1.8830     3.8070    -6.2290 ca         1 RB1       0.128100
     22 O18          2.8490     3.9110    -7.1790 oh         1 RB1      -0.498100
     23 H201        -0.3610    -0.8740     0.5290 hc         1 RB1       0.019367
     24 H202        -0.3610     0.8950     0.4930 hc         1 RB1       0.019367
     25 H203        -0.3610    -0.0210    -1.0210 hc         1 RB1       0.019367
     26 H211         3.0990    -0.2280     1.4510 hc         1 RB1       0.019367
     27 H212         1.5050    -0.7480     2.0150 hc         1 RB1       0.019367
     28 H213         1.8780     0.9760     1.8830 hc         1 RB1       0.019367
     29 H221         1.5100    -2.1200    -0.3540 hc         1 RB1       0.019367
     30 H222         3.1000    -1.3670    -0.5350 hc         1 RB1       0.019367
     31 H223         1.8700    -1.1460    -1.7860 hc         1 RB1       0.019367
     32 H1           6.5550     1.0610    -0.6150 h5         1 RB1      -0.004900
     33 H101         5.2140     4.5950    -3.4240 hn         1 RB1       0.281800
     34 H102         4.1500     5.3220    -2.2640 hn         1 RB1       0.281800
     35 H111         2.2740     5.1070    -2.4760 hc         1 RB1       0.027200
     36 H112         0.6080     4.7210    -2.0230 hc         1 RB1       0.027200
     37 H13          3.1660     4.4480    -4.6340 ha         1 RB1       0.117000
     38 H17         -0.8520     3.5130    -3.5370 ha         1 RB1       0.114000
     39 H16         -1.3700     2.9610    -5.8820 ha         1 RB1       0.104000
     40 H15          0.3790     3.1460    -7.6090 ha         1 RB1       0.112000
     41 H18          2.6730     4.6580    -7.7270 ho         1 RB1       0.401000
@<TRIPOS>BOND
     1     1     2 1   
     2     1    23 1   
     3     1    24 1   
     4     1    25 1   
     5     2     3 1   
     6     2     4 1   
     7     2     5 1   
     8     3    26 1   
     9     3    27 1   
    10     3    28 1   
    11     4    29 1   
    12     4    30 1   
    13     4    31 1   
    14     5     6 1   
    15     5     7 1   
    16     6    14 2   
    17     7     8 ar  
    18     7    13 ar  
    19     8     9 ar  
    20     9    10 ar  
    21     9    32 1   
    22    10    11 ar  
    23    11    12 1   
    24    11    13 ar  
    25    12    33 1   
    26    12    34 1   
    27    13    14 1   
    28    14    15 1   
    29    15    16 1   
    30    15    35 1   
    31    15    36 1   
    32    16    17 ar  
    33    16    18 ar  
    34    17    21 ar  
    35    17    37 1   
    36    18    19 ar  
    37    18    38 1   
    38    19    20 ar  
    39    19    39 1   
    40    20    21 ar  
    41    20    40 1   
    42    21    22 1   
    43    22    41 1   
@<TRIPOS>SUBSTRUCTURE
     1 RB1         1 TEMP              0 ****  ****    0 ROOT
