@<TRIPOS>MOLECULE
RB2
   37    37     1     0     0
SMALL
bcc


@<TRIPOS>ATOM
      1 O17          0.0000     0.0000     0.0000 oh         1 RB2      -0.598300
      2 C15          1.4280     0.0000     0.0000 c3         1 RB2       0.386900
      3 O16          1.9040     1.1670    -0.6740 oh         1 RB2      -0.598300
      4 C13          1.9380     0.0000     1.4420 c3         1 RB2       0.334300
      5 O14          3.3670     0.0010     1.4430 oh         1 RB2      -0.610800
      6 N12          1.4490    -1.1990     2.1350 n7         1 RB2      -0.577200
      7 C6           1.0770    -0.7810     3.4930 c3         1 RB2       0.112500
      8 C5           1.0770    -1.9980     4.4200 c3         1 RB2      -0.070700
      9 C8           2.4740    -2.6220     4.4430 c3         1 RB2       0.383900
     10 O10          2.4670    -3.7760     5.2850 oh         1 RB2      -0.598800
     11 O9           3.4130    -1.6690     4.9470 os         1 RB2      -0.391600
     12 C11          4.7150    -2.2150     4.7260 c3         1 RB2       0.235700
     13 C4           0.6900    -1.5620     5.8340 c3         1 RB2      -0.033400
     14 C3          -0.7070    -0.9390     5.8120 c3         1 RB2       0.059700
     15 Cl          -1.1630    -0.4240     7.4790 cl         1 RB2      -0.148400
     16 C2          -0.7070     0.2790     4.8850 c3         1 RB2      -0.039400
     17 C1          -0.3200    -0.1580     3.4700 c3         1 RB2      -0.023400
     18 H17         -0.3140    -0.2260    -0.8600 ho         1 RB2       0.391000
     19 H15          1.7890    -0.8840    -0.5110 h2         1 RB2      -0.011300
     20 H16          1.9100     1.0130    -1.6040 ho         1 RB2       0.391000
     21 H13          1.5770     0.8840     1.9530 h2         1 RB2       0.032700
     22 H14          3.6810     0.8850     1.3520 ho         1 RB2       0.413000
     23 H12          2.1820    -1.8790     2.1840 hn         1 RB2       0.274800
     24 H6           1.7890    -0.0510     3.8590 h1         1 RB2       0.037700
     25 H5           0.3590    -2.7240     4.0590 hc         1 RB2       0.044700
     26 H8           2.7570    -2.9100     3.4380 h2         1 RB2      -0.006300
     27 H10          2.4480    -4.5540     4.7520 ho         1 RB2       0.394000
     28 H111         4.8780    -3.0460     5.4010 h1         1 RB2      -0.006633
     29 H112         5.4620    -1.4510     4.9070 h1         1 RB2      -0.006633
     30 H113         4.7930    -2.5600     3.7020 h1         1 RB2      -0.006633
     31 H41          1.4040    -0.8300     6.1930 hc         1 RB2       0.042700
     32 H42          0.6890    -2.4240     6.4890 hc         1 RB2       0.042700
     33 H3          -1.4200    -1.6680     5.4470 h1         1 RB2       0.036700
     34 H21          0.0110     1.0060     5.2460 hc         1 RB2       0.026700
     35 H22         -1.6970     0.7190     4.8680 hc         1 RB2       0.026700
     36 H11         -0.3180     0.7050     2.8150 hc         1 RB2       0.030700
     37 H12A        -1.0340    -0.8890     3.1110 hc         1 RB2       0.030700
@<TRIPOS>BOND
     1     1     2 1   
     2     1    18 1   
     3     2     3 1   
     4     2     4 1   
     5     2    19 1   
     6     3    20 1   
     7     4     5 1   
     8     4     6 1   
     9     4    21 1   
    10     5    22 1   
    11     6     7 1   
    12     6    23 1   
    13     7     8 1   
    14     7    17 1   
    15     7    24 1   
    16     8     9 1   
    17     8    13 1   
    18     8    25 1   
    19     9    10 1   
    20     9    11 1   
    21     9    26 1   
    22    10    27 1   
    23    11    12 1   
    24    12    28 1   
    25    12    29 1   
    26    12    30 1   
    27    13    14 1   
    28    13    31 1   
    29    13    32 1   
    30    14    15 1   
    31    14    16 1   
    32    14    33 1   
    33    16    17 1   
    34    16    34 1   
    35    16    35 1   
    36    17    36 1   
    37    17    37 1   
@<TRIPOS>SUBSTRUCTURE
     1 RB2         1 TEMP              0 ****  ****    0 ROOT
