@<TRIPOS>MOLECULE
RB3
   42    41     1     0     0
SMALL
bcc


@<TRIPOS>ATOM
      1 O1M         0.1830   -0.1090   -0.4600 os        1 RB3     -0.439900
      2 C1A         0.9520    0.9900   -0.7400 c         1 RB3      0.641100
      3 O1A         0.7740    2.0040   -0.0620 o         1 RB3     -0.542000
      4 C2A         1.8800    0.7670   -1.8920 c3        1 RB3     -0.155400
      5 C3A         3.3540    0.9110   -1.5310 c3        1 RB3      0.159100
      6 C4A         3.7050    2.2690   -0.9570 c3        1 RB3     -0.107100
      7 O3A         3.7150   -0.0510   -0.5210 os        1 RB3     -0.440900
      8 C1B         4.0130   -1.3240   -0.9280 c         1 RB3      0.640100
      9 O1B         3.9410   -1.5930   -2.1290 o         1 RB3     -0.543000
     10 C2B         4.4210   -2.2010    0.2140 c3        1 RB3     -0.133400
     11 C3B         4.1260   -3.6710   -0.0660 c3        1 RB3      0.154100
     12 C4B         4.9620   -4.5730    0.8200 c3        1 RB3     -0.121100
     13 O3B         2.7280   -3.8420    0.2470 os        1 RB3     -0.452900
     14 C1C         2.0730   -4.9000   -0.3260 c         1 RB3      0.647100
     15 O1C         2.7120   -5.6810   -1.0300 o         1 RB3     -0.533000
     16 C2C         0.6060   -4.9230   -0.0270 c3        1 RB3     -0.125400
     17 C3C         0.2900   -4.7050    1.4500 c3        1 RB3      0.144100
     18 C4C        -1.1500   -4.2550    1.6290 c3        1 RB3     -0.132100
     19 O3C         0.5120   -5.9560    2.0940 oh        1 RB3     -0.599800
     20 C1         -0.7460    0.0150    0.6170 c3        1 RB3      0.125700
     21 H2A1        1.6280    1.5270   -2.6800 hc        1 RB3      0.093700
     22 H2A2        1.7130   -0.2610   -2.3150 hc        1 RB3      0.093700
     23 H3A         3.9590    0.7080   -2.4620 h1        1 RB3      0.076700
     24 H4A1        4.7830    2.2960   -0.6710 hc        1 RB3      0.058033
     25 H4A2        3.5070    3.0520   -1.7270 hc        1 RB3      0.058033
     26 H4A3        3.0870    2.4870   -0.0510 hc        1 RB3      0.058033
     27 H2B1        5.5250   -2.0690    0.3690 hc        1 RB3      0.094200
     28 H2B2        3.8900   -1.8710    1.1460 hc        1 RB3      0.094200
     29 H3B         4.2930   -3.9150   -1.1540 h1        1 RB3      0.095700
     30 H4B1        6.0430   -4.4450    0.5790 hc        1 RB3      0.053367
     31 H4B2        4.6730   -5.6380    0.6400 hc        1 RB3      0.053367
     32 H4B3        4.7950   -4.3330    1.8970 hc        1 RB3      0.053367
     33 H2C1        0.1220   -4.1100   -0.6300 hc        1 RB3      0.092700
     34 H2C2        0.2010   -5.9170   -0.3570 hc        1 RB3      0.092700
     35 H1          0.9890   -3.9340    1.8850 h1        1 RB3      0.056700
     36 H4C1       -1.3070   -3.2670    1.1340 hc        1 RB3      0.045700
     37 H4C2       -1.8490   -5.0010    1.1810 hc        1 RB3      0.045700
     38 H4C3       -1.3880   -4.1540    2.7150 hc        1 RB3      0.045700
     39 H3C         0.2990   -5.8310    3.0260 ho        1 RB3      0.404000
     40 H11        -0.2050    0.2640    1.5620 h1        1 RB3      0.049033
     41 H12        -1.4940    0.8110    0.3840 h1        1 RB3      0.049033
     42 H13        -1.2240   -0.9940    0.6720 h1        1 RB3      0.049033
@<TRIPOS>BOND
     1    1    2 1   
     2    1   20 1   
     3    2    3 2   
     4    2    4 1   
     5    4    5 1   
     6    4   21 1   
     7    4   22 1   
     8    5    6 1   
     9    5    7 1   
    10    5   23 1   
    11    6   24 1   
    12    6   25 1   
    13    6   26 1   
    14    7    8 1   
    15    8    9 2   
    16    8   10 1   
    17   10   11 1   
    18   10   27 1   
    19   10   28 1   
    20   11   12 1   
    21   11   13 1   
    22   11   29 1   
    23   12   30 1   
    24   12   31 1   
    25   12   32 1   
    26   13   14 1   
    27   14   15 2   
    28   14   16 1   
    29   16   17 1   
    30   16   33 1   
    31   16   34 1   
    32   17   18 1   
    33   17   19 1   
    34   17   35 1   
    35   18   36 1   
    36   18   37 1   
    37   18   38 1   
    38   19   39 1   
    39   20   40 1   
    40   20   41 1   
    41   20   42 1   
@<TRIPOS>SUBSTRUCTURE
     1 RB3         1 TEMP              0 ****  ****    0 ROOT
