@<TRIPOS>MOLECULE
molecule
   42    41     1     0     0
SMALL
bcc


@<TRIPOS>ATOM
      1 O1M          0.0000     0.0000     0.0000 os         1 RB3      -0.427900
      2 C1A          1.3670     0.0000     0.0000 c          1 RB3       0.637100
      3 O1A          2.0820     0.0000     0.9930 o          1 RB3      -0.513000
      4 C2A          1.8550    -0.0040    -1.4330 c3         1 RB3      -0.176400
      5 C3A          3.2180     0.6720    -1.5860 c3         1 RB3       0.158100
      6 C4A          3.1770     2.1110    -1.0870 c3         1 RB3      -0.097100
      7 O3A          4.1740    -0.0500    -0.8140 os         1 RB3      -0.416900
      8 C1B          4.3470    -1.3630    -1.1600 c          1 RB3       0.648100
      9 O1B          4.2050    -1.8290    -2.2820 o          1 RB3      -0.522000
     10 C2B          4.7440    -2.1490     0.0730 c3         1 RB3      -0.142400
     11 C3B          4.2980    -3.6100     0.0010 c3         1 RB3       0.152100
     12 C4B          4.6650    -4.3600     1.2760 c3         1 RB3      -0.129100
     13 O3B          2.8810    -3.6460    -0.1540 os         1 RB3      -0.431900
     14 C1C          2.3230    -4.8940    -0.2320 c          1 RB3       0.658100
     15 O1C          2.9340    -5.9520    -0.1780 o          1 RB3      -0.516000
     16 C2C          0.8230    -4.7550    -0.3910 c3         1 RB3      -0.128400
     17 C3C          0.1840    -3.9840     0.7650 c3         1 RB3       0.153100
     18 C4C         -1.3300    -3.9070     0.6020 c3         1 RB3      -0.133100
     19 O3C          0.4760    -4.6650     1.9830 oh         1 RB3      -0.606800
     20 C1          -0.6170    -0.0000     1.2920 c3         1 RB3       0.119700
     21 H2A1         1.9320    -1.0290    -1.7750 hc         1 RB3       0.089200
     22 H2A2         1.1340     0.5180    -2.0510 hc         1 RB3       0.089200
     23 H3A          3.5130     0.6600    -2.6290 h1         1 RB3       0.065700
     24 H4A1         3.2360     2.1200    -0.0050 hc         1 RB3       0.053700
     25 H4A2         2.2510     2.5770    -1.4020 hc         1 RB3       0.053700
     26 H4A3         4.0160     2.6600    -1.4980 hc         1 RB3       0.053700
     27 H2B1         4.2940    -1.6870     0.9430 hc         1 RB3       0.091700
     28 H2B2         5.8220    -2.1160     0.1760 hc         1 RB3       0.091700
     29 H3B          4.7670    -4.0910    -0.8490 h1         1 RB3       0.067700
     30 H4B1         5.6440    -4.0400     1.6140 hc         1 RB3       0.056700
     31 H4B2         3.9310    -4.1480     2.0440 hc         1 RB3       0.056700
     32 H4B3         4.6820    -5.4240     1.0770 hc         1 RB3       0.056700
     33 H2C1         0.3830    -5.7430    -0.4390 hc         1 RB3       0.080200
     34 H2C2         0.6160    -4.2330    -1.3170 hc         1 RB3       0.080200
     35 H1           0.5950    -2.9820     0.8030 h1         1 RB3       0.046700
     36 H4C1        -1.5670    -3.4360    -0.3440 hc         1 RB3       0.045367
     37 H4C2        -1.7510    -3.3240     1.4120 hc         1 RB3       0.045367
     38 H4C3        -1.7460    -4.9070     0.6220 hc         1 RB3       0.045367
     39 H3C         -0.0510    -4.3070     2.6780 ho         1 RB3       0.406000
     40 H11         -0.0960    -0.6940     1.9410 h1         1 RB3       0.047033
     41 H12         -1.6530    -0.3020     1.1980 h1         1 RB3       0.047033
     42 H13         -0.5680     0.9960     1.7150 h1         1 RB3       0.047033
@<TRIPOS>BOND
     1     1     2 1
     2     1    20 1
     3     2     3 2
     4     2     4 1
     5     4     5 1
     6     4    21 1
     7     4    22 1
     8     5     6 1
     9     5     7 1
    10     5    23 1
    11     6    24 1
    12     6    25 1
    13     6    26 1
    14     7     8 1
    15     8     9 2
    16     8    10 1
    17    10    11 1
    18    10    27 1
    19    10    28 1
    20    11    12 1
    21    11    13 1
    22    11    29 1
    23    12    30 1
    24    12    31 1
    25    12    32 1
    26    13    14 1
    27    14    15 2
    28    14    16 1
    29    16    17 1
    30    16    33 1
    31    16    34 1
    32    17    18 1
    33    17    19 1
    34    17    35 1
    35    18    36 1
    36    18    37 1
    37    18    38 1
    38    19    39 1
    39    20    40 1
    40    20    41 1
    41    20    42 1
@<TRIPOS>SUBSTRUCTURE
     1 RB3         1 TEMP              0 ****  ****    0 ROOT
