@<TRIPOS>MOLECULE
RB4
   57    60     1     0     0
SMALL
bcc


@<TRIPOS>ATOM
      1 C1           0.0000     0.0000     0.0000 cc         1 RB4      -0.226600
      2 N1          -1.8880     0.0070     1.5440 ns         1 RB4       0.025900
      3 O1          -1.1450    -1.0530    -1.7260 o          1 RB4      -0.582000
      4 S1           0.6990     0.0010     2.4410 ss         1 RB4      -0.133800
      5 C2          -0.8090     0.0000    -1.2190 c          1 RB4       0.744700
      6 N2          -3.9850     0.0070     4.5830 n7         1 RB4      -0.559200
      7 O2          -1.1820     1.1690    -1.7800 os         1 RB4      -0.407900
      8 C3          -1.9830     1.0930    -2.9880 c3         1 RB4       0.221400
      9 N3          -9.0860     0.6970     7.3360 na         1 RB4       0.354600
     10 O3          -1.5040     0.0030     3.7290 o          1 RB4      -0.578100
     11 C4          -2.3070     2.5060    -3.4750 c3         1 RB4      -0.003100
     12 C5           1.4540     0.0000     0.0000 cc         1 RB4       0.008000
     13 C6           2.2760    -0.0000    -1.2340 ca         1 RB4      -0.033000
     14 C7           1.9730     0.0000     1.2340 cd         1 RB4      -0.045100
     15 C8          -0.5300     0.0050     1.2620 cd         1 RB4       0.024500
     16 C9          -2.3110     0.0060     2.8230 c          1 RB4       0.534100
     17 C10         -3.7870     0.0080     3.1280 c3         1 RB4       0.081800
     18 C11         -5.4150     0.0080     4.9200 c3         1 RB4       0.137800
     19 C12         -5.5820     0.0060     6.4400 c3         1 RB4       0.072800
     20 C13         -7.0500     0.0080     6.7850 cc         1 RB4      -0.151400
     21 C14          2.0140    -0.9200    -2.2480 ca         1 RB4      -0.091500
     22 C15          2.7810    -0.9150    -3.3950 ca         1 RB4      -0.102000
     23 C16          3.8080    -0.0010    -3.5390 ca         1 RB4      -0.099000
     24 C17          4.0720     0.9150    -2.5370 ca         1 RB4      -0.102000
     25 C18          3.3080     0.9240    -1.3870 ca         1 RB4      -0.091500
     26 C19         -7.9230    -1.1630     6.8820 ca         1 RB4      -0.094800
     27 C20         -9.1950    -0.6720     7.2270 ca         1 RB4      -0.226200
     28 C21         -7.8010     1.0830     7.0690 cd         1 RB4      -0.267100
     29 C22         -7.7300    -2.5350     6.7100 ca         1 RB4      -0.044000
     30 C23         -8.7790    -3.3940     6.8780 ca         1 RB4      -0.132000
     31 C24        -10.0400    -2.9130     7.2020 ca         1 RB4      -0.084000
     32 C25        -10.2510    -1.5630     7.3840 ca         1 RB4      -0.105000
     33 HN1         -2.5530     0.0030     0.7960 hn         1 RB4       0.173500
     34 HN2         -3.5480     0.8150     4.9800 hn         1 RB4       0.266800
     35 H3          -1.4310     0.5640    -3.7560 h1         1 RB4       0.008200
     36 H3A         -2.9050     0.5640    -2.7770 h1         1 RB4       0.008200
     37 H4          -1.3860     3.0490    -3.6470 hc         1 RB4       0.011367
     38 H4A         -2.8710     2.4500    -4.3980 hc         1 RB4       0.011367
     39 H4B         -2.8950     3.0210    -2.7240 hc         1 RB4       0.011367
     40 H7           3.0330    -0.0010     1.4570 h4         1 RB4       0.157000
     41 H10         -4.2450    -0.8760     2.7000 h1         1 RB4       0.021700
     42 H10A        -4.2430     0.8930     2.7020 h1         1 RB4       0.021700
     43 H11         -5.8850    -0.8750     4.5040 h1         1 RB4       0.007700
     44 H11A        -5.8820     0.8940     4.5060 h1         1 RB4       0.007700
     45 H12         -5.1120     0.8890     6.8560 hc         1 RB4       0.021200
     46 H12A        -5.1150    -0.8800     6.8530 hc         1 RB4       0.021200
     47 H14          1.2090    -1.6370    -2.1360 ha         1 RB4       0.118000
     48 H15          2.5790    -1.6300    -4.1840 ha         1 RB4       0.103500
     49 H16          4.4090    -0.0020    -4.4400 ha         1 RB4       0.101000
     50 H17          4.8770     1.6310    -2.6560 ha         1 RB4       0.103500
     51 H18          3.5160     1.6410    -0.6030 ha         1 RB4       0.118000
     52 H21         -7.4430     2.1060     7.0850 h4         1 RB4       0.140000
     53 H22         -6.7490    -2.9190     6.4570 ha         1 RB4       0.104000
     54 H23         -8.6290    -4.4570     6.7380 ha         1 RB4       0.103000
     55 H24        -10.8620    -3.6060     7.3320 ha         1 RB4       0.100000
     56 H25        -11.2390    -1.1970     7.6370 ha         1 RB4       0.098000
     57 HN3         -9.8350     1.3160     7.5750 hn         1 RB4       0.113700
@<TRIPOS>BOND
     1     1     5 1   
     2     1    12 1   
     3     1    15 2   
     4     2    15 1   
     5     2    16 1   
     6     2    33 1   
     7     3     5 2   
     8     4    14 1   
     9     4    15 1   
    10     5     7 1   
    11     6    17 1   
    12     6    18 1   
    13     6    34 1   
    14     7     8 1   
    15     8    11 1   
    16     8    35 1   
    17     8    36 1   
    18     9    27 1   
    19     9    28 1   
    20     9    57 1   
    21    10    16 2   
    22    11    37 1   
    23    11    38 1   
    24    11    39 1   
    25    12    13 1   
    26    12    14 2   
    27    13    21 ar  
    28    13    25 ar  
    29    14    40 1   
    30    16    17 1   
    31    17    41 1   
    32    17    42 1   
    33    18    19 1   
    34    18    43 1   
    35    18    44 1   
    36    19    20 1   
    37    19    45 1   
    38    19    46 1   
    39    20    26 1   
    40    20    28 2   
    41    21    22 ar  
    42    21    47 1   
    43    22    23 ar  
    44    22    48 1   
    45    23    24 ar  
    46    23    49 1   
    47    24    25 ar  
    48    24    50 1   
    49    25    51 1   
    50    26    27 ar  
    51    26    29 ar  
    52    27    32 ar  
    53    28    52 1   
    54    29    30 ar  
    55    29    53 1   
    56    30    31 ar  
    57    30    54 1   
    58    31    32 ar  
    59    31    55 1   
    60    32    56 1   
@<TRIPOS>SUBSTRUCTURE
     1 RB4         1 TEMP              0 ****  ****    0 ROOT
