@<TRIPOS>MOLECULE
molecule
   57    60     1     0     0
SMALL
bcc


@<TRIPOS>ATOM
      1 C1           0.0000     0.0000     0.0000 cc         1 RB4      -0.215600
      2 N1          -1.8880     0.0070     1.5440 ns         1 RB4      -0.436100
      3 O1          -1.1450    -1.0530    -1.7260 o          1 RB4      -0.545000
      4 S1           0.6990     0.0010     2.4410 ss         1 RB4       0.047200
      5 C2          -0.8090     0.0000    -1.2190 c          1 RB4       0.672700
      6 N2          -3.9850     0.0070     4.5830 n7         1 RB4      -0.800200
      7 O2          -1.1820     1.1690    -1.7800 os         1 RB4      -0.421900
      8 C3          -1.9830     1.0930    -2.9880 c3         1 RB4       0.142400
      9 N3          -9.0860     0.6970     7.3360 na         1 RB4      -0.183400
     10 O3          -1.5040     0.0030     3.7290 o          1 RB4      -0.565100
     11 C4          -2.3070     2.5060    -3.4750 c3         1 RB4      -0.095100
     12 C5           1.4540     0.0000     0.0000 cc         1 RB4      -0.003000
     13 C6           2.2760    -0.0000    -1.2340 ca         1 RB4      -0.031000
     14 C7           1.9730     0.0000     1.2340 cd         1 RB4      -0.142100
     15 C8          -0.5300     0.0050     1.2620 cd         1 RB4       0.102500
     16 C9          -2.3110     0.0060     2.8230 c          1 RB4       0.649100
     17 C10         -3.7870     0.0080     3.1280 c3         1 RB4       0.091800
     18 C11         -5.4150     0.0080     4.9200 c3         1 RB4       0.158800
     19 C12         -5.5820     0.0060     6.4400 c3         1 RB4      -0.000200
     20 C13         -7.0500     0.0080     6.7850 cd         1 RB4      -0.158400
     21 C14          2.0140    -0.9200    -2.2480 ca         1 RB4      -0.112000
     22 C15          2.7810    -0.9150    -3.3950 ca         1 RB4      -0.131500
     23 C16          3.8080    -0.0010    -3.5390 ca         1 RB4      -0.126000
     24 C17          4.0720     0.9150    -2.5370 ca         1 RB4      -0.131500
     25 C18          3.3080     0.9240    -1.3870 ca         1 RB4      -0.112000
     26 C19         -7.9230    -1.1630     6.8820 ca         1 RB4      -0.097800
     27 C20         -9.1950    -0.6720     7.2270 ca         1 RB4      -0.038200
     28 C21         -7.8010     1.0830     7.0690 cc         1 RB4      -0.097100
     29 C22         -7.7300    -2.5350     6.7100 ca         1 RB4      -0.078000
     30 C23         -8.7790    -3.3940     6.8780 ca         1 RB4      -0.157000
     31 C24        -10.0400    -2.9130     7.2020 ca         1 RB4      -0.107000
     32 C25        -10.2510    -1.5630     7.3840 ca         1 RB4      -0.145000
     33 HN1         -2.5530     0.0030     0.7960 hn         1 RB4       0.337500
     34 HN2         -3.5480     0.8150     4.9800 hn         1 RB4       0.367800
     35 H3          -1.4310     0.5640    -3.7560 h1         1 RB4       0.047200
     36 H3A         -2.9050     0.5640    -2.7770 h1         1 RB4       0.047200
     37 H4          -1.3860     3.0490    -3.6470 hc         1 RB4       0.047700
     38 H4A         -2.8710     2.4500    -4.3980 hc         1 RB4       0.047700
     39 H4B         -2.8950     3.0210    -2.7240 hc         1 RB4       0.047700
     40 H7           3.0330    -0.0010     1.4570 h4         1 RB4       0.178000
     41 H10         -4.2450    -0.8760     2.7000 h1         1 RB4       0.055700
     42 H10A        -4.2430     0.8930     2.7020 h1         1 RB4       0.055700
     43 H11         -5.8850    -0.8750     4.5040 h1         1 RB4       0.035700
     44 H11A        -5.8820     0.8940     4.5060 h1         1 RB4       0.035700
     45 H12         -5.1120     0.8890     6.8560 hc         1 RB4       0.055200
     46 H12A        -5.1150    -0.8800     6.8530 hc         1 RB4       0.055200
     47 H14          1.2090    -1.6370    -2.1360 ha         1 RB4       0.143000
     48 H15          2.5790    -1.6300    -4.1840 ha         1 RB4       0.130500
     49 H16          4.4090    -0.0020    -4.4400 ha         1 RB4       0.127000
     50 H17          4.8770     1.6310    -2.6560 ha         1 RB4       0.130500
     51 H18          3.5160     1.6410    -0.6030 ha         1 RB4       0.143000
     52 H21         -7.4430     2.1060     7.0850 h4         1 RB4       0.164000
     53 H22         -6.7490    -2.9190     6.4570 ha         1 RB4       0.133000
     54 H23         -8.6290    -4.4570     6.7380 ha         1 RB4       0.129000
     55 H24        -10.8620    -3.6060     7.3320 ha         1 RB4       0.130000
     56 H25        -11.2390    -1.1970     7.6370 ha         1 RB4       0.125000
     57 HN3         -9.8350     1.3160     7.5750 hn         1 RB4       0.295700
@<TRIPOS>BOND
     1    15     1 2
     2    12     1 1
     3     1     5 1
     4    16     2 1
     5     2    15 1
     6     2    33 1
     7     5     3 2
     8     4    14 1
     9     4    15 1
    10     5     7 1
    11     6    17 1
    12     6    18 1
    13     6    34 1
    14     7     8 1
    15    11     8 1
    16     8    35 1
    17     8    36 1
    18    28     9 1
    19     9    27 1
    20    10    16 2
    21    11    37 1
    22    11    38 1
    23    11    39 1
    24    14    12 2
    25    12    13 1
    26    21    13 ar
    27    13    25 ar
    28    14    40 1
    29    16    17 1
    30    17    41 1
    31    17    42 1
    32    19    18 1
    33    18    43 1
    34    18    44 1
    35    19    20 1
    36    19    45 1
    37    19    46 1
    38    28    20 2
    39    20    26 1
    40    21    22 ar
    41    21    47 1
    42    22    23 ar
    43    22    48 1
    44    23    24 ar
    45    23    49 1
    46    25    24 ar
    47    24    50 1
    48    25    51 1
    49    26    27 ar
    50    26    29 ar
    51    27    32 ar
    52    28    52 1
    53    29    30 ar
    54    29    53 1
    55    30    31 ar
    56    30    54 1
    57    32    31 ar
    58    31    55 1
    59    32    56 1
    60     9    57 1
@<TRIPOS>SUBSTRUCTURE
     1 RB4         1 TEMP              0 ****  ****    0 ROOT
