@<TRIPOS>MOLECULE
molecule
   59    62     1     0     0
SMALL
bcc


@<TRIPOS>ATOM
      1 OAX          0.0000     0.0000     0.0000 o          1 RB6      -0.587100
      2 CAW          1.2140     0.0000     0.0000 c          1 RB6       0.559800
      3 CAY          1.9540     0.0000     1.2840 ce         1 RB6       0.305300
      4 CBB          3.4300    -0.1320     1.2870 cd         1 RB6       0.629700
      5 NBF          4.0960    -0.3630     0.1830 nc         1 RB6      -0.506100
      6 SBE          5.7310    -0.4400     0.6350 ss         1 RB6       0.008700
      7 CBD          5.4280    -0.1550     2.3070 cc         1 RB6       0.721300
      8 NBG          6.3590    -0.0800     3.3280 nv         1 RB6      -0.973500
      9 NBC          4.1260    -0.0170     2.4050 nd         1 RB6      -0.793000
     10 NAZ          1.3090     0.1160     2.4070 n2         1 RB6      -0.360200
     11 OBA         -0.1070     0.1340     2.4120 oh         1 RB6      -0.329500
     12 N            1.8880    -0.0050    -1.1660 ns         1 RB6      -0.553900
     13 CA           1.1610     0.0970    -2.4340 c3         1 RB6       0.000700
     14 C            0.6990    -1.2730    -2.8600 c          1 RB6       0.575900
     15 O            0.9520    -2.2350    -2.1770 o          1 RB6      -0.515100
     16 CB           2.0840     0.6820    -3.5060 c3         1 RB6       0.347600
     17 SAS          3.5340    -0.3980    -3.7320 ss         1 RB6      -0.424200
     18 CAR          4.3770     0.4270    -5.1160 c3         1 RB6       0.114900
     19 NAC          1.3790     0.7380    -4.7960 nu         1 RB6      -0.806000
     20 CAD          2.0780     0.9160    -5.9820 ce         1 RB6       0.143800
     21 CBH          1.2790     1.2940    -7.1630 c          1 RB6       0.870800
     22 OBI          1.1780     0.4470    -8.2070 o          1 RB6      -0.803800
     23 OBJ          0.7110     2.3670    -7.1940 o          1 RB6      -0.803800
     24 CAE          3.3700     0.7850    -6.1710 c2         1 RB6      -0.279400
     25 CAF          3.8880     1.0150    -7.5670 c3         1 RB6       0.016000
     26 CAG          4.4220     2.4200    -7.6810 ce         1 RB6      -0.094400
     27 CAH          3.6140     3.6060    -7.9820 c          1 RB6       0.646700
     28 OAI          2.4140     3.6020    -8.1780 o          1 RB6      -0.486500
     29 CAQ          5.6940     2.7700    -7.5160 c2         1 RB6      -0.243200
     30 CAP          5.7700     4.2650    -7.7190 c3         1 RB6       0.121200
     31 NAJ          4.3980     4.7010    -8.0100 n          1 RB6      -0.519800
     32 CAK          3.9610     6.0740    -8.2800 c3         1 RB6       0.150700
     33 CAL          2.8930     6.5080    -7.2560 c3         1 RB6      -0.097400
     34 CAM          1.6340     6.8120    -8.0960 c3         1 RB6       0.143800
     35 NAN          1.8120     6.0200    -9.3390 n7         1 RB6      -0.734200
     36 CAO          3.2600     6.1520    -9.6530 c3         1 RB6       0.121800
     37 H1           7.3330    -0.1900     3.1260 hn         1 RB6       0.451800
     38 H2           6.0580     0.0820     4.2690 hn         1 RB6       0.451800
     39 H3          -0.4180     0.1800     3.3010 ho         1 RB6       0.418000
     40 H4           2.8890    -0.0420    -1.1650 hn         1 RB6       0.364500
     41 H5           0.3020     0.7440    -2.3060 h1         1 RB6       0.097700
     42 H6           0.1400    -1.3940    -3.7800 h4         1 RB6       0.017200
     43 H7           2.4070     1.6750    -3.2200 h2         1 RB6       0.067700
     44 H8           4.8600     1.3280    -4.7580 h1         1 RB6       0.057700
     45 H9           5.1180    -0.2430    -5.5370 h1         1 RB6       0.057700
     46 H10          0.3830     0.6470    -4.8180 hn         1 RB6       0.446800
     47 H12          3.0840     0.8760    -8.2790 hc         1 RB6       0.086700
     48 H13          4.6830     0.3090    -7.7780 hc         1 RB6       0.086700
     49 H14          6.4840     2.1310    -7.8910 ha         1 RB6       0.141000
     50 H15          6.1300     4.7450    -6.8180 h1         1 RB6       0.031200
     51 H16          6.4190     4.4950    -8.5560 h1         1 RB6       0.031200
     52 H17          4.8030     6.7540    -8.2520 h1         1 RB6       0.040700
     53 H18          2.6930     5.7040    -6.5590 hc         1 RB6       0.057200
     54 H19          3.2170     7.3980    -6.7310 hc         1 RB6       0.057200
     55 H20          1.5820     7.8690    -8.3270 h1         1 RB6       0.032700
     56 H21          0.7440     6.4900    -7.5690 h1         1 RB6       0.032700
     57 H22          1.2720     6.4290   -10.0760 hn         1 RB6       0.331800
     58 H24          3.5840     5.3360   -10.2880 h1         1 RB6       0.036200
     59 H25          3.4580     7.1080   -10.1230 h1         1 RB6       0.036200
@<TRIPOS>BOND
     1     8     7 1
     2     6     7 1
     3     6     5 1
     4     7     9 2
     5     5     4 2
     6     9     4 1
     7    15    14 2
     8     4     3 1
     9    14    13 1
    10    23    21 1
    11     3    10 2
    12     3     2 1
    13    10    11 1
    14    33    34 1
    15    33    32 1
    16    34    35 1
    17    12     2 1
    18    12    13 1
    19     2     1 2
    20    21    22 1
    21    21    20 1
    22    13    16 1
    23    35    36 1
    24    20    19 1
    25    20    24 2
    26    19    16 1
    27    30    29 1
    28    30    31 1
    29    29    26 2
    30    31    27 1
    31    31    32 1
    32    27    26 1
    33    27    28 2
    34    26    25 1
    35    25    24 1
    36    36    32 1
    37    24    18 1
    38    16    17 1
    39    18    17 1
    40     8    37 1
    41     8    38 1
    42    11    39 1
    43    12    40 1
    44    13    41 1
    45    14    42 1
    46    16    43 1
    47    18    44 1
    48    18    45 1
    49    19    46 1
    50    25    47 1
    51    25    48 1
    52    29    49 1
    53    30    50 1
    54    30    51 1
    55    32    52 1
    56    33    53 1
    57    33    54 1
    58    34    55 1
    59    34    56 1
    60    35    57 1
    61    36    58 1
    62    36    59 1
@<TRIPOS>SUBSTRUCTURE
     1 RB6         1 TEMP              0 ****  ****    0 ROOT
