@<TRIPOS>MOLECULE
RB6
   60    63     1     0     0
SMALL
bcc


@<TRIPOS>ATOM
      1 OAX         0.8520    0.7980    0.0900 o         1 RB6     -0.401100
      2 CAW         1.9080    0.6810   -0.5120 c         1 RB6      0.463800
      3 CAY         3.1920    0.1520    0.0610 ce        1 RB6      0.262300
      4 CBB         4.0900    1.2270    0.5480 cc        1 RB6      0.574700
      5 NBF         4.0120    2.4590    0.0090 nd        1 RB6     -0.612100
      6 SBE         5.0910    3.4350    0.7270 ss        1 RB6      0.141700
      7 CBD         5.6900    2.1560    1.7950 cd        1 RB6      0.663300
      8 NBG         6.6200    2.3620    2.7700 nh        1 RB6     -0.915500
      9 NBC         5.0260    0.9890    1.5580 nc        1 RB6     -0.700000
     10 NAZ         3.5250   -1.1090    0.1630 n2        1 RB6     -0.295200
     11 OBA         2.6820   -1.9750   -0.3240 oh        1 RB6     -0.348500
     12 N           1.9800    1.1100   -1.9350 n4        1 RB6     -0.677800
     13 CA          1.7080   -0.0250   -2.8850 c3        1 RB6     -0.067500
     14 C           2.7990   -0.1280   -3.9660 c         1 RB6      0.543900
     15 O           3.8080    0.5700   -3.8840 o         1 RB6     -0.530100
     16 CB          0.2350    0.0420   -3.4430 c3        1 RB6      0.293600
     17 SAS        -0.3570    1.7450   -3.4650 ss        1 RB6     -0.350200
     18 CAR        -0.2550    2.2640   -5.1720 c3        1 RB6      0.061900
     19 NAC        -0.0090   -0.6340   -4.6730 nh        1 RB6     -0.685000
     20 CAD         0.4650   -0.0340   -5.8680 ce        1 RB6     -0.025200
     21 CBH         1.1670   -1.0280   -6.8310 c         1 RB6      0.918800
     22 OBI         1.9030   -1.8860   -6.2510 o         1 RB6     -0.797300
     23 OBJ         1.0000   -0.9300   -8.0640 o         1 RB6     -0.797300
     24 CAE         0.3300    1.2910   -6.1200 c2        1 RB6     -0.161400
     25 CAF         0.7260    1.8990   -7.4260 c3        1 RB6      0.022000
     26 CAG         2.1630    2.2170   -7.4970 ce        1 RB6     -0.179400
     27 CAH         2.7630    3.4520   -6.8750 c         1 RB6      0.686700
     28 OAI         2.1740    4.3150   -6.2060 o         1 RB6     -0.638500
     29 CAQ         3.1400    1.5220   -8.1220 c2        1 RB6     -0.115200
     30 CAP         4.4600    2.2490   -7.9670 c3        1 RB6      0.079200
     31 NAJ         4.1600    3.4100   -7.1170 n         1 RB6     -0.457800
     32 CAK         5.0200    4.5550   -7.2160 c3        1 RB6      0.087700
     33 CAL         4.9690    5.5310   -6.0180 c3        1 RB6     -0.110400
     34 CAM         4.9750    6.9420   -6.6310 c3        1 RB6      0.141800
     35 NAN         5.0820    6.8530   -8.0860 n3        1 RB6     -0.784200
     36 CAO         4.7800    5.4790   -8.4610 c3        1 RB6      0.111800
     37 H1          7.2350    3.1340    2.6610 hn        1 RB6      0.444800
     38 H2          6.9560    1.5810    3.2870 hn        1 RB6      0.444800
     39 H3          3.0780   -2.8570   -0.1350 ho        1 RB6      0.485000
     40 H4          2.9230    1.4860   -2.1370 hn        1 RB6      0.488800
     41 H5          1.7840   -0.9970   -2.3030 hx        1 RB6      0.113700
     42 H6          2.6230   -0.9030   -4.7660 h4        1 RB6      0.162200
     43 H7         -0.4060   -0.4510   -2.6520 h2        1 RB6      0.098700
     44 H8         -1.3140    2.4850   -5.4660 h1        1 RB6      0.100700
     45 H9          0.3320    3.2220   -5.1890 h1        1 RB6      0.100700
     46 H10         0.2390   -1.6110   -4.6380 hn        1 RB6      0.428800
     47 H12         0.4670    1.1750   -8.2550 hc        1 RB6      0.086700
     48 H13         0.1360    2.8430   -7.5910 hc        1 RB6      0.086700
     49 H14         3.0490    0.5630   -8.6420 ha        1 RB6      0.197000
     50 H15         4.8650    2.5620   -8.9680 h1        1 RB6      0.067200
     51 H16         5.2180    1.6010   -7.4510 h1        1 RB6      0.067200
     52 H17         6.0710    4.1440   -7.2920 h1        1 RB6      0.049700
     53 H18         5.8580    5.3730   -5.3630 hc        1 RB6      0.064200
     54 H19         4.0480    5.3850   -5.4010 hc        1 RB6      0.064200
     55 H20         4.0030    7.4590   -6.4010 h1        1 RB6      0.049700
     56 H21         5.8060    7.5600   -6.1990 h1        1 RB6      0.049700
     57 H22         6.0130    7.0910   -8.3770 hn        1 RB6      0.342800
     58 H24         5.4030    5.1380   -9.3280 h1        1 RB6      0.057200
     59 H25         3.6980    5.4450   -8.7680 h1        1 RB6      0.057200
     60 H23         1.2700    1.8720   -2.1430 hn        1 RB6      0.488800
@<TRIPOS>BOND
     1    1    2 2   
     2    2    3 1   
     3    2   12 1   
     4    3    4 1   
     5    3   10 2   
     6    4    5 2   
     7    4    9 1   
     8    5    6 1   
     9    6    7 1   
    10    7    8 1   
    11    7    9 2   
    12    8   37 1   
    13    8   38 1   
    14   10   11 1   
    15   11   39 1   
    16   12   13 1   
    17   12   40 1   
    18   12   60 1   
    19   13   14 1   
    20   13   16 1   
    21   13   41 1   
    22   14   15 2   
    23   14   42 1   
    24   16   17 1   
    25   16   19 1   
    26   16   43 1   
    27   17   18 1   
    28   18   24 1   
    29   18   44 1   
    30   18   45 1   
    31   19   20 1   
    32   19   46 1   
    33   20   21 1   
    34   20   24 2   
    35   21   22 1   
    36   21   23 1   
    37   24   25 1   
    38   25   26 1   
    39   25   47 1   
    40   25   48 1   
    41   26   27 1   
    42   26   29 2   
    43   27   28 2   
    44   27   31 1   
    45   29   30 1   
    46   29   49 1   
    47   30   31 1   
    48   30   50 1   
    49   30   51 1   
    50   31   32 1   
    51   32   33 1   
    52   32   36 1   
    53   32   52 1   
    54   33   34 1   
    55   33   53 1   
    56   33   54 1   
    57   34   35 1   
    58   34   55 1   
    59   34   56 1   
    60   35   36 1   
    61   35   57 1   
    62   36   58 1   
    63   36   59 1   
@<TRIPOS>SUBSTRUCTURE
     1 RB6         1 TEMP              0 ****  ****    0 ROOT
