@<TRIPOS>MOLECULE
RB9
   65    69     1     0     0
SMALL
bcc


@<TRIPOS>ATOM
      1 C1           0.0000     0.0000     0.0000 cc         1 RB9      -0.243600
      2 N1          -1.1830     1.1680    -1.7810 ns         1 RB9      -0.191900
      3 O1          -1.1460    -1.0530    -1.7280 o          1 RB9      -0.647100
      4 S1           0.6980    -0.0010     2.4410 ss         1 RB9      -0.141800
      5 C2          -0.8100     0.0000    -1.2200 c          1 RB9       0.616700
      6 N2          -1.8880     0.0110     1.5420 ns         1 RB9       0.023900
      7 O2          -1.5060     0.0150     3.7270 o          1 RB9      -0.579100
      8 C3          -1.9930     1.1680    -3.0010 c3         1 RB9       0.110300
      9 N3          -3.9870     0.0270     4.5810 n7         1 RB9      -0.558200
     10 C4          -2.2720     2.5900    -3.4190 ca         1 RB9      -0.128300
     11 N4          -9.0900     0.7400     7.3190 na         1 RB9       0.353600
     12 C5           1.4540     0.0000     0.0000 cc         1 RB9       0.003000
     13 C6           2.2750     0.0020    -1.2350 ca         1 RB9      -0.034000
     14 C7           1.9720     0.0000     1.2340 cd         1 RB9      -0.045100
     15 C8          -0.5310     0.0050     1.2610 cd         1 RB9       0.017500
     16 C9          -2.3120     0.0160     2.8210 c          1 RB9       0.533100
     17 C10         -3.7880     0.0220     3.1260 c3         1 RB9       0.081800
     18 C11         -5.4180     0.0330     4.9170 c3         1 RB9       0.137800
     19 C12         -5.5850     0.0370     6.4370 c3         1 RB9       0.071800
     20 C13         -7.0520     0.0440     6.7820 cc         1 RB9      -0.150400
     21 C14          3.3070     0.9260    -1.3870 ca         1 RB9      -0.091500
     22 C15          4.0680     0.9220    -2.5380 ca         1 RB9      -0.104500
     23 C16          3.8080     0.0040    -3.5400 ca         1 RB9      -0.101000
     24 C17          2.7840    -0.9150    -3.3940 ca         1 RB9      -0.104500
     25 C18          2.0210    -0.9250    -2.2450 ca         1 RB9      -0.091500
     26 C19         -1.4020     3.2420    -4.2730 ca         1 RB9      -0.084000
     27 C20         -1.6570     4.5450    -4.6560 ca         1 RB9      -0.101000
     28 C21         -2.7830     5.1960    -4.1850 ca         1 RB9      -0.091000
     29 C22         -3.6520     4.5430    -3.3330 ca         1 RB9      -0.101000
     30 C23         -3.3990     3.2390    -2.9530 ca         1 RB9      -0.084000
     31 C24         -7.8030     1.1220     7.0520 cd         1 RB9      -0.268100
     32 C25         -9.1990    -0.6300     7.2240 ca         1 RB9      -0.226200
     33 C26         -7.9280    -1.1260     6.8830 ca         1 RB9      -0.094800
     34 C27         -7.7370    -2.4990     6.7170 ca         1 RB9      -0.043000
     35 C28         -8.7880    -3.3550     6.8880 ca         1 RB9      -0.132000
     36 C29        -10.0450    -2.8710     7.2240 ca         1 RB9      -0.084000
     37 C30        -10.2550    -1.5200     7.3930 ca         1 RB9      -0.105000
     38 HN1         -0.9170     2.0340    -1.3560 hn         1 RB9       0.183500
     39 HN2         -2.5540    -0.0230     0.7950 hn         1 RB9       0.173500
     40 H3          -2.9290     0.6570    -2.8130 h1         1 RB9       0.028700
     41 H3A         -1.4560     0.6590    -3.7920 h1         1 RB9       0.028700
     42 HN3         -3.5480     0.8350     4.9750 hn         1 RB9       0.266800
     43 H7           3.0320    -0.0010     1.4570 h4         1 RB9       0.157000
     44 H10         -4.2420     0.9070     2.6970 h1         1 RB9       0.020700
     45 H10A        -4.2480    -0.8620     2.7010 h1         1 RB9       0.020700
     46 H11         -5.8890    -0.8510     4.5040 h1         1 RB9       0.007700
     47 H11A        -5.8830     0.9180     4.5000 h1         1 RB9       0.007700
     48 H12         -5.1200    -0.8490     6.8540 hc         1 RB9       0.021700
     49 H12A        -5.1130     0.9200     6.8500 hc         1 RB9       0.021700
     50 H14          3.5120     1.6450    -0.6040 ha         1 RB9       0.120500
     51 H15          4.8700     1.6400    -2.6570 ha         1 RB9       0.103500
     52 H16          4.4060     0.0070    -4.4430 ha         1 RB9       0.101000
     53 H17          2.5860    -1.6330    -4.1800 ha         1 RB9       0.103500
     54 H18          1.2200    -1.6450    -2.1320 ha         1 RB9       0.120500
     55 H19         -0.5200     2.7310    -4.6410 ha         1 RB9       0.107500
     56 H20         -0.9750     5.0570    -5.3250 ha         1 RB9       0.105000
     57 H21         -2.9820     6.2180    -4.4840 ha         1 RB9       0.104000
     58 H22         -4.5350     5.0530    -2.9660 ha         1 RB9       0.105000
     59 H23         -4.0810     2.7270    -2.2840 ha         1 RB9       0.107500
     60 H24         -7.4440     2.1440     7.0590 h4         1 RB9       0.139000
     61 H27         -6.7590    -2.8840     6.4550 ha         1 RB9       0.105000
     62 H28         -8.6400    -4.4200     6.7590 ha         1 RB9       0.103000
     63 H29        -10.8680    -3.5620     7.3560 ha         1 RB9       0.100000
     64 H30        -11.2390    -1.1520     7.6560 ha         1 RB9       0.098000
     65 HN4         -9.8390     1.3620     7.5490 hn         1 RB9       0.113700
@<TRIPOS>BOND
     1     1     5 1   
     2     1    12 1   
     3     1    15 2   
     4     2     5 1   
     5     2     8 1   
     6     2    38 1   
     7     3     5 2   
     8     4    14 1   
     9     4    15 1   
    10     6    15 1   
    11     6    16 1   
    12     6    39 1   
    13     7    16 2   
    14     8    10 1   
    15     8    40 1   
    16     8    41 1   
    17     9    17 1   
    18     9    18 1   
    19     9    42 1   
    20    10    26 ar  
    21    10    30 ar  
    22    11    31 1   
    23    11    32 1   
    24    11    65 1   
    25    12    13 1   
    26    12    14 2   
    27    13    21 ar  
    28    13    25 ar  
    29    14    43 1   
    30    16    17 1   
    31    17    44 1   
    32    17    45 1   
    33    18    19 1   
    34    18    46 1   
    35    18    47 1   
    36    19    20 1   
    37    19    48 1   
    38    19    49 1   
    39    20    31 2   
    40    20    33 1   
    41    21    22 ar  
    42    21    50 1   
    43    22    23 ar  
    44    22    51 1   
    45    23    24 ar  
    46    23    52 1   
    47    24    25 ar  
    48    24    53 1   
    49    25    54 1   
    50    26    27 ar  
    51    26    55 1   
    52    27    28 ar  
    53    27    56 1   
    54    28    29 ar  
    55    28    57 1   
    56    29    30 ar  
    57    29    58 1   
    58    30    59 1   
    59    31    60 1   
    60    32    33 ar  
    61    32    37 ar  
    62    33    34 ar  
    63    34    35 ar  
    64    34    61 1   
    65    35    36 ar  
    66    35    62 1   
    67    36    37 ar  
    68    36    63 1   
    69    37    64 1   
@<TRIPOS>SUBSTRUCTURE
     1 RB9         1 TEMP              0 ****  ****    0 ROOT
