@<TRIPOS>MOLECULE
molecule
   65    69     1     0     0
SMALL
bcc


@<TRIPOS>ATOM
      1 C1           0.0000     0.0000     0.0000 cc         1 RB9      -0.241600
      2 N1          -1.1830     1.1680    -1.7810 ns         1 RB9      -0.578900
      3 O1          -1.1460    -1.0530    -1.7280 o          1 RB9      -0.608100
      4 S1           0.6980    -0.0010     2.4410 ss         1 RB9       0.036200
      5 C2          -0.8100     0.0000    -1.2200 c          1 RB9       0.692700
      6 N2          -1.8880     0.0110     1.5420 ns         1 RB9      -0.437100
      7 O2          -1.5060     0.0150     3.7270 o          1 RB9      -0.565100
      8 C3          -1.9930     1.1680    -3.0010 c3         1 RB9       0.159300
      9 N3          -3.9870     0.0270     4.5810 n7         1 RB9      -0.800200
     10 C4          -2.2720     2.5900    -3.4190 ca         1 RB9      -0.118300
     11 N4          -9.0900     0.7400     7.3190 na         1 RB9      -0.183400
     12 C5           1.4540     0.0000     0.0000 cc         1 RB9      -0.010000
     13 C6           2.2750     0.0020    -1.2350 ca         1 RB9      -0.032000
     14 C7           1.9720     0.0000     1.2340 cd         1 RB9      -0.141100
     15 C8          -0.5310     0.0050     1.2610 cd         1 RB9       0.094500
     16 C9          -2.3120     0.0160     2.8210 c          1 RB9       0.647100
     17 C10         -3.7880     0.0220     3.1260 c3         1 RB9       0.091800
     18 C11         -5.4180     0.0330     4.9170 c3         1 RB9       0.158800
     19 C12         -5.5850     0.0370     6.4370 c3         1 RB9      -0.001200
     20 C13         -7.0520     0.0440     6.7820 cc         1 RB9      -0.157400
     21 C14          3.3070     0.9260    -1.3870 ca         1 RB9      -0.111500
     22 C15          4.0680     0.9220    -2.5380 ca         1 RB9      -0.133000
     23 C16          3.8080     0.0040    -3.5400 ca         1 RB9      -0.127000
     24 C17          2.7840    -0.9150    -3.3940 ca         1 RB9      -0.133000
     25 C18          2.0210    -0.9250    -2.2450 ca         1 RB9      -0.111500
     26 C19         -1.4020     3.2420    -4.2730 ca         1 RB9      -0.112000
     27 C20         -1.6570     4.5450    -4.6560 ca         1 RB9      -0.130000
     28 C21         -2.7830     5.1960    -4.1850 ca         1 RB9      -0.120000
     29 C22         -3.6520     4.5430    -3.3330 ca         1 RB9      -0.130000
     30 C23         -3.3990     3.2390    -2.9530 ca         1 RB9      -0.112000
     31 C24         -7.8030     1.1220     7.0520 cd         1 RB9      -0.098100
     32 C25         -9.1990    -0.6300     7.2240 ca         1 RB9      -0.038200
     33 C26         -7.9280    -1.1260     6.8830 ca         1 RB9      -0.098800
     34 C27         -7.7370    -2.4990     6.7170 ca         1 RB9      -0.078000
     35 C28         -8.7880    -3.3550     6.8880 ca         1 RB9      -0.157000
     36 C29        -10.0450    -2.8710     7.2240 ca         1 RB9      -0.107000
     37 C30        -10.2550    -1.5200     7.3930 ca         1 RB9      -0.145000
     38 HN1         -0.9170     2.0340    -1.3560 hn         1 RB9       0.324500
     39 HN2         -2.5540    -0.0230     0.7950 hn         1 RB9       0.338500
     40 H3          -2.9290     0.6570    -2.8130 h1         1 RB9       0.057700
     41 H3A         -1.4560     0.6590    -3.7920 h1         1 RB9       0.057700
     42 HN3         -3.5480     0.8350     4.9750 hn         1 RB9       0.367800
     43 H7           3.0320    -0.0010     1.4570 h4         1 RB9       0.177000
     44 H10         -4.2420     0.9070     2.6970 h1         1 RB9       0.054700
     45 H10A        -4.2480    -0.8620     2.7010 h1         1 RB9       0.054700
     46 H11         -5.8890    -0.8510     4.5040 h1         1 RB9       0.035700
     47 H11A        -5.8830     0.9180     4.5000 h1         1 RB9       0.035700
     48 H12         -5.1200    -0.8490     6.8540 hc         1 RB9       0.055700
     49 H12A        -5.1130     0.9200     6.8500 hc         1 RB9       0.055700
     50 H14          3.5120     1.6450    -0.6040 ha         1 RB9       0.144000
     51 H15          4.8700     1.6400    -2.6570 ha         1 RB9       0.130000
     52 H16          4.4060     0.0070    -4.4430 ha         1 RB9       0.127000
     53 H17          2.5860    -1.6330    -4.1800 ha         1 RB9       0.130000
     54 H18          1.2200    -1.6450    -2.1320 ha         1 RB9       0.144000
     55 H19         -0.5200     2.7310    -4.6410 ha         1 RB9       0.134000
     56 H20         -0.9750     5.0570    -5.3250 ha         1 RB9       0.132000
     57 H21         -2.9820     6.2180    -4.4840 ha         1 RB9       0.131000
     58 H22         -4.5350     5.0530    -2.9660 ha         1 RB9       0.132000
     59 H23         -4.0810     2.7270    -2.2840 ha         1 RB9       0.134000
     60 H24         -7.4440     2.1440     7.0590 h4         1 RB9       0.164000
     61 H27         -6.7590    -2.8840     6.4550 ha         1 RB9       0.134000
     62 H28         -8.6400    -4.4200     6.7590 ha         1 RB9       0.130000
     63 H29        -10.8680    -3.5620     7.3560 ha         1 RB9       0.130000
     64 H30        -11.2390    -1.1520     7.6560 ha         1 RB9       0.125000
     65 HN4         -9.8390     1.3620     7.5490 hn         1 RB9       0.295700
@<TRIPOS>BOND
     1     1     5 1
     2     1    12 1
     3     1    15 2
     4     2     5 1
     5     2     8 1
     6     3     5 2
     7     4    14 1
     8     4    15 1
     9     6    15 1
    10     6    16 1
    11     7    16 2
    12     8    10 1
    13     9    17 1
    14     9    18 1
    15    10    26 ar
    16    10    30 ar
    17    11    31 1
    18    11    32 1
    19    12    13 1
    20    12    14 2
    21    13    21 ar
    22    13    25 ar
    23    16    17 1
    24    18    19 1
    25    19    20 1
    26    20    31 2
    27    20    33 1
    28    21    22 ar
    29    22    23 ar
    30    23    24 ar
    31    24    25 ar
    32    26    27 ar
    33    27    28 ar
    34    28    29 ar
    35    29    30 ar
    36    32    33 ar
    37    32    37 ar
    38    33    34 ar
    39    34    35 ar
    40    35    36 ar
    41    36    37 ar
    42     2    38 1
    43     6    39 1
    44     8    40 1
    45     8    41 1
    46     9    42 1
    47    11    65 1
    48    14    43 1
    49    17    44 1
    50    17    45 1
    51    18    46 1
    52    18    47 1
    53    19    48 1
    54    19    49 1
    55    21    50 1
    56    22    51 1
    57    23    52 1
    58    24    53 1
    59    25    54 1
    60    26    55 1
    61    27    56 1
    62    28    57 1
    63    29    58 1
    64    30    59 1
    65    31    60 1
    66    34    61 1
    67    35    62 1
    68    36    63 1
    69    37    64 1
@<TRIPOS>SUBSTRUCTURE
     1 RB9         1 TEMP              0 ****  ****    0 ROOT
