@<TRIPOS>MOLECULE
RBC
   70    74     1     0     0
SMALL
bcc


@<TRIPOS>ATOM
      1 N0           0.0000     0.0000     0.0000 n7         1 RBC      -0.567200
      2 C11          1.4670     0.0000     0.0000 c3         1 RBC       0.104800
      3 C1           1.9850     0.0000     1.4400 c3         1 RBC       0.166100
      4 O0           3.4130     0.0320     1.4340 os         1 RBC      -0.380600
      5 C12          3.7960     1.4080     1.4430 c3         1 RBC       0.251700
      6 C13          5.2990     1.5120     1.4380 ca         1 RBC      -0.107300
      7 C14          5.9790     1.5680     0.2230 ca         1 RBC      -0.080000
      8 C15          7.3350     1.6620     0.1820 ca         1 RBC      -0.092000
      9 C16          8.0660     1.7040     1.3820 ca         1 RBC      -0.030000
     10 C17          9.4680     1.8000     1.3810 ca         1 RBC      -0.088000
     11 C23         10.1410     1.8380     2.5630 ca         1 RBC      -0.099000
     12 C25          9.4620     1.7810     3.7780 ca         1 RBC      -0.103000
     13 C24          8.1040     1.6870     3.8180 ca         1 RBC      -0.087000
     14 C18          7.3750     1.6450     2.6190 ca         1 RBC      -0.039000
     15 C19          5.9720     1.5540     2.6200 ca         1 RBC      -0.061000
     16 C2           1.5020    -1.2690     2.1500 c3         1 RBC       0.002600
     17 C3           1.9140    -1.2240     3.5990 ca         1 RBC      -0.066300
     18 C1B          2.7360    -2.2090     4.1140 ca         1 RBC      -0.103000
     19 C1A          3.1140    -2.1670     5.4430 ca         1 RBC      -0.072000
     20 C6           2.6710    -1.1420     6.2570 ca         1 RBC      -0.125300
     21 C5           1.8490    -0.1560     5.7410 ca         1 RBC      -0.072000
     22 C4           1.4750    -0.1950     4.4120 ca         1 RBC      -0.103000
     23 C7           3.0830    -1.0970     7.7060 c3         1 RBC       0.296700
     24 O8           4.3150    -0.3400     7.8360 os         1 RBC      -0.418900
     25 C9           4.8750    -0.1690     9.0490 c          1 RBC       0.720700
     26 OI           4.3480    -0.6450    10.0340 o          1 RBC      -0.584000
     27 CA           6.1280     0.6010     9.1810 ca         1 RBC      -0.145600
     28 CB           6.7360     1.1510     8.0510 ca         1 RBC      -0.043000
     29 CC           7.9060     1.8690     8.1810 ca         1 RBC      -0.124000
     30 CH           8.4790     2.0450     9.4300 ca         1 RBC      -0.058000
     31 CE           7.8840     1.5040    10.5530 ca         1 RBC      -0.119000
     32 CD           6.7080     0.7870    10.4380 ca         1 RBC       0.008400
     33 Cl           5.9620     0.1080    11.8520 cl         1 RBC       0.036600
     34 C1C         -0.0250    -1.3450     2.0490 c3         1 RBC      -0.053700
     35 C21         -0.5110    -2.6630     2.6550 c3         1 RBC       0.194400
     36 O31         -1.9400    -2.6840     2.6630 os         1 RBC      -0.400600
     37 C41         -2.3320    -3.9330     3.2360 c3         1 RBC       0.240700
     38 C1D         -0.4370    -1.2750     0.5780 c3         1 RBC       0.137800
     39 HN0         -0.3340     0.0720    -0.9410 hn         1 RBC       0.255800
     40 H111         1.8260     0.8860    -0.5100 h1         1 RBC       0.015700
     41 H112         1.8260    -0.8860    -0.5100 h1         1 RBC       0.015700
     42 H1           1.6020     0.8700     1.9600 h1         1 RBC       0.031700
     43 H121         3.4040     1.8870     2.3330 h1         1 RBC      -0.000300
     44 H122         3.3970     1.8990     0.5640 h1         1 RBC      -0.000300
     45 H14          5.4180     1.5360    -0.7040 ha         1 RBC       0.104000
     46 H15          7.8500     1.7050    -0.7710 ha         1 RBC       0.107000
     47 H17         10.0100     1.8450     0.4440 ha         1 RBC       0.106000
     48 H23         11.2220     1.9120     2.5590 ha         1 RBC       0.101000
     49 H25         10.0220     1.8130     4.7040 ha         1 RBC       0.099000
     50 H24          7.5900     1.6440     4.7700 ha         1 RBC       0.104000
     51 H19          5.4250     1.6330     3.5520 ha         1 RBC       0.111000
     52 H2           1.9390    -2.1370     1.6720 hc         1 RBC       0.042700
     53 H1B          3.0840    -3.0130     3.4770 ha         1 RBC       0.112000
     54 H1A          3.7580    -2.9390     5.8470 ha         1 RBC       0.107000
     55 H5           1.5030     0.6490     6.3780 ha         1 RBC       0.107000
     56 H4           0.8310     0.5770     4.0070 ha         1 RBC       0.112000
     57 H71          3.2390    -2.1060     8.0680 h1         1 RBC       0.012700
     58 H72          2.3030    -0.6210     8.2880 h1         1 RBC       0.012700
     59 HB           6.2890     1.0150     7.0740 ha         1 RBC       0.120000
     60 HC           8.3790     2.2960     7.3040 ha         1 RBC       0.109000
     61 HH           9.4000     2.6080     9.5260 ha         1 RBC       0.105000
     62 HE           8.3370     1.6470    11.5260 ha         1 RBC       0.118000
     63 H1C         -0.4630    -0.5120     2.5860 hc         1 RBC       0.054700
     64 H211        -0.1420    -3.4910     2.0620 h1         1 RBC       0.001700
     65 H212        -0.1430    -2.7520     3.6690 h1         1 RBC       0.001700
     66 H411        -1.8620    -4.7440     2.6920 h1         1 RBC      -0.011633
     67 H412        -3.4090    -4.0360     3.1780 h1         1 RBC      -0.011633
     68 H413        -2.0210    -3.9680     4.2740 h1         1 RBC      -0.011633
     69 H1D1         0.0250    -2.0910     0.0360 h1         1 RBC       0.016700
     70 H1D2        -1.5150    -1.3520     0.5030 h1         1 RBC       0.016700
@<TRIPOS>BOND
     1     1     2 1   
     2     1    38 1   
     3     1    39 1   
     4     2     3 1   
     5     2    40 1   
     6     2    41 1   
     7     3     4 1   
     8     3    16 1   
     9     3    42 1   
    10     4     5 1   
    11     5     6 1   
    12     5    43 1   
    13     5    44 1   
    14     6     7 ar  
    15     6    15 ar  
    16     7     8 ar  
    17     7    45 1   
    18     8     9 ar  
    19     8    46 1   
    20     9    10 ar  
    21     9    14 ar  
    22    10    11 ar  
    23    10    47 1   
    24    11    12 ar  
    25    11    48 1   
    26    12    13 ar  
    27    12    49 1   
    28    13    14 ar  
    29    13    50 1   
    30    14    15 ar  
    31    15    51 1   
    32    16    17 1   
    33    16    34 1   
    34    16    52 1   
    35    17    18 ar  
    36    17    22 ar  
    37    18    19 ar  
    38    18    53 1   
    39    19    20 ar  
    40    19    54 1   
    41    20    21 ar  
    42    20    23 1   
    43    21    22 ar  
    44    21    55 1   
    45    22    56 1   
    46    23    24 1   
    47    23    57 1   
    48    23    58 1   
    49    24    25 1   
    50    25    26 2   
    51    25    27 1   
    52    27    28 ar  
    53    27    32 ar  
    54    28    29 ar  
    55    28    59 1   
    56    29    30 ar  
    57    29    60 1   
    58    30    31 ar  
    59    30    61 1   
    60    31    32 ar  
    61    31    62 1   
    62    32    33 1   
    63    34    35 1   
    64    34    38 1   
    65    34    63 1   
    66    35    36 1   
    67    35    64 1   
    68    35    65 1   
    69    36    37 1   
    70    37    66 1   
    71    37    67 1   
    72    37    68 1   
    73    38    69 1   
    74    38    70 1   
@<TRIPOS>SUBSTRUCTURE
     1 RBC         1 TEMP              0 ****  ****    0 ROOT
