@<TRIPOS>MOLECULE
molecule
   37    39     1     0     0
SMALL
bcc


@<TRIPOS>ATOM
      1 C1           0.0000     0.0000     0.0000 c3         1 RBE       0.156500
      2 C2           1.5360     0.0000     0.0000 c3         1 RBE      -0.235700
      3 C3           2.0350     0.0000     1.4480 c3         1 RBE       0.180100
      4 C4           1.3970     1.1470     2.2400 c3         1 RBE      -0.118400
      5 C5          -0.1300     1.0650     2.0740 c3         1 RBE       0.122500
      6 C6          -0.5580    -0.3940     2.3510 c3         1 RBE      -0.106400
      7 C7          -0.4730    -1.0990     0.9810 c3         1 RBE      -0.113400
      8 C9           5.6650    -0.2970     2.4860 ca         1 RBE      -0.137600
      9 C10          6.4080    -0.8970     3.5050 ca         1 RBE      -0.067000
     10 C11          7.7810    -0.7610     3.5240 ca         1 RBE      -0.150500
     11 C12          8.4210    -0.0300     2.5380 ca         1 RBE      -0.098000
     12 C13          7.6900     0.5670     1.5270 ca         1 RBE      -0.150500
     13 C14          6.3170     0.4340     1.4920 ca         1 RBE      -0.067000
     14 C15          2.0410     1.2320    -0.7070 c          1 RBE       0.895600
     15 N1          -0.4420     1.2780     0.6200 ny         1 RBE      -0.742000
     16 O1           3.4800     0.1400     1.4750 os         1 RBE      -0.359900
     17 O2           3.6300    -1.0810     3.3230 o          1 RBE      -0.585000
     18 O3           1.3880     1.7280    -1.6100 o          1 RBE      -0.797800
     19 O4           3.1050     1.7300    -0.3800 o          1 RBE      -0.797800
     20 H1          -0.4100    -0.1350    -0.9940 hx         1 RBE       0.127700
     21 H2           1.8990    -0.8850    -0.5090 hc         1 RBE       0.100700
     22 H3           1.7650    -0.9410     1.9130 h1         1 RBE       0.049700
     23 H41          1.6540     1.0530     3.2880 hc         1 RBE       0.093700
     24 H42          1.7540     2.0960     1.8600 hc         1 RBE       0.093700
     25 H5          -0.6500     1.7710     2.7100 hx         1 RBE       0.097700
     26 H61          0.1200    -0.8580     3.0560 hc         1 RBE       0.078700
     27 H62         -1.5730    -0.4230     2.7280 hc         1 RBE       0.078700
     28 H71         -1.4470    -1.4720     0.6880 hc         1 RBE       0.076200
     29 H72          0.2470    -1.9080     1.0170 hc         1 RBE       0.076200
     30 H10          5.9080    -1.4700     4.2770 ha         1 RBE       0.165000
     31 H11          8.3600    -1.2260     4.3140 ha         1 RBE       0.136000
     32 H12          9.4990     0.0770     2.5590 ha         1 RBE       0.130000
     33 H13          8.1970     1.1360     0.7570 ha         1 RBE       0.136000
     34 H14          5.7450     0.9020     0.6990 ha         1 RBE       0.165000
     35 HN11         0.0810     2.0490     0.2540 hn         1 RBE       0.457800
     36 HN12        -1.4240     1.4160     0.4840 hn         1 RBE       0.457800
     37 C8           4.1950    -0.4400     2.4590 c          1 RBE       0.651700
@<TRIPOS>BOND
     1     1     2 1
     2     1     7 1
     3     1    15 1
     4     1    20 1
     5     2     3 1
     6     2    14 1
     7     2    21 1
     8     3     4 1
     9     3    16 1
    10     3    22 1
    11     4     5 1
    12     4    23 1
    13     4    24 1
    14     5     6 1
    15     5    15 1
    16     5    25 1
    17     6     7 1
    18     6    26 1
    19     6    27 1
    20     7    28 1
    21     7    29 1
    22    37     8 1
    23    37    16 1
    24    37    17 2
    25     8     9 ar
    26     8    13 ar
    27     9    10 ar
    28     9    30 1
    29    10    11 ar
    30    10    31 1
    31    11    12 ar
    32    11    32 1
    33    12    13 ar
    34    12    33 1
    35    13    34 1
    36    14    18 1
    37    14    19 1
    38    15    35 1
    39    15    36 1
@<TRIPOS>SUBSTRUCTURE
     1 RBE         1 TEMP              0 ****  ****    0 ROOT
