@<TRIPOS>MOLECULE
molecule
   47    49     1     0     0
SMALL
bcc


@<TRIPOS>ATOM
      1 N1           0.0000     0.0000     0.0000 nc         1 RBF      -0.464400
      2 C2           1.3310     0.0000     0.0000 c          1 RBF       0.856900
      3 O2           1.9030     0.0020    -1.0770 o          1 RBF      -0.609500
      4 N3           2.0820     0.0000     1.1100 ns         1 RBF      -0.591500
      5 C4           1.5180    -0.0020     2.3400 c          1 RBF       0.615000
      6 O4           2.1980    -0.0020     3.3490 o          1 RBF      -0.572500
      7 C4A          0.0400    -0.0030     2.4050 cd         1 RBF       0.283800
      8 N5          -0.6080    -0.0040     3.5420 nc         1 RBF      -0.532000
      9 C5A         -1.9470    -0.0050     3.5650 ca         1 RBF       0.303600
     10 C6          -2.6260    -0.0070     4.8000 ca         1 RBF      -0.097300
     11 C7          -3.9880    -0.0080     4.8270 ca         1 RBF      -0.117300
     12 C7M         -4.7070    -0.0100     6.1510 c3         1 RBF      -0.044800
     13 C8          -4.7220    -0.0070     3.6460 ca         1 RBF      -0.008300
     14 C8M         -6.2280    -0.0070     3.7030 c3         1 RBF      -0.054800
     15 C9          -4.0860    -0.0050     2.4240 ca         1 RBF      -0.161000
     16 C9A         -2.6960    -0.0050     2.3660 ca         1 RBF      -0.011600
     17 N10         -2.0540    -0.0030     1.1460 na         1 RBF      -0.077100
     18 C10         -0.6920    -0.0020     1.1280 cd         1 RBF       0.079400
     19 C1'         -2.8200    -0.0030    -0.1030 c3         1 RBF       0.031300
     20 C2'         -3.0870     1.4400    -0.5370 c3         1 RBF       0.127100
     21 O2'         -3.8330     2.1120     0.4800 oh         1 RBF      -0.590800
     22 C3'         -3.8870     1.4410    -1.8410 c3         1 RBF       0.137100
     23 O3'         -3.1410     0.7680    -2.8570 oh         1 RBF      -0.590800
     24 C4'         -4.1550     2.8830    -2.2740 c3         1 RBF       0.135100
     25 O4'         -4.9000     3.5560    -1.2580 oh         1 RBF      -0.597800
     26 C5'         -4.9550     2.8840    -3.5790 c3         1 RBF       0.105400
     27 O5'         -5.1050     4.2260    -4.0460 oh         1 RBF      -0.615800
     28 HN3          3.0790     0.0000     1.0280 hn         1 RBF       0.354500
     29 HC6         -2.0650    -0.0530     5.7260 ha         1 RBF       0.162000
     30 HC71        -5.3080    -0.9070     6.2350 hc         1 RBF       0.048367
     31 HC72        -3.9810     0.0150     6.9550 hc         1 RBF       0.048367
     32 HC73        -5.3470     0.8610     6.2160 hc         1 RBF       0.048367
     33 HC81        -6.5730     0.9120     4.1620 hc         1 RBF       0.053367
     34 HC82        -6.5680    -0.8520     4.2900 hc         1 RBF       0.053367
     35 HC83        -6.6280    -0.0810     2.6990 hc         1 RBF       0.053367
     36 HC9         -4.6670    -0.0050     1.5100 ha         1 RBF       0.160000
     37 HC11        -3.7630    -0.5140     0.0520 h1         1 RBF       0.091200
     38 HC12        -2.2550    -0.5130    -0.8740 h1         1 RBF       0.091200
     39 HC2'        -2.1450     1.9510    -0.6910 h1         1 RBF       0.071700
     40 HO2'        -3.4040     2.9220     0.7020 ho         1 RBF       0.417000
     41 HC3'        -4.8300     0.9290    -1.6870 h1         1 RBF       0.051700
     42 HO3'        -3.7040     0.1640    -3.3130 ho         1 RBF       0.408000
     43 HC4'        -3.2120     3.3940    -2.4290 h1         1 RBF       0.058700
     44 HO4'        -4.9250     4.4800    -1.4460 ho         1 RBF       0.418000
     45 HC51        -5.9320     2.4520    -3.4030 h1         1 RBF       0.032700
     46 HC52        -4.4300     2.2980    -4.3240 h1         1 RBF       0.032700
     47 HO5'        -5.5250     4.2210    -4.8900 ho         1 RBF       0.411000
@<TRIPOS>BOND
     1     1     2 1
     2     1    18 2
     3     2     3 2
     4     2     4 1
     5     4     5 1
     6     4    28 1
     7     5     6 2
     8     5     7 1
     9     7     8 2
    10     7    18 1
    11     8     9 1
    12     9    10 ar
    13     9    16 ar
    14    10    11 ar
    15    10    29 1
    16    11    12 1
    17    11    13 ar
    18    12    30 1
    19    12    31 1
    20    12    32 1
    21    13    14 1
    22    13    15 ar
    23    14    33 1
    24    14    34 1
    25    14    35 1
    26    15    16 ar
    27    15    36 1
    28    16    17 1
    29    17    18 1
    30    17    19 1
    31    19    20 1
    32    19    37 1
    33    19    38 1
    34    20    21 1
    35    20    22 1
    36    20    39 1
    37    21    40 1
    38    22    23 1
    39    22    24 1
    40    22    41 1
    41    23    42 1
    42    24    25 1
    43    24    26 1
    44    24    43 1
    45    25    44 1
    46    26    27 1
    47    26    45 1
    48    26    46 1
    49    27    47 1
@<TRIPOS>SUBSTRUCTURE
     1 RBF         1 TEMP              0 ****  ****    0 ROOT
