@<TRIPOS>MOLECULE
molecule
   47    50     1     0     0
SMALL
bcc


@<TRIPOS>ATOM
      1 N13          0.0000     0.0000     0.0000 n7         1 RBP      -0.802200
      2 C12          1.4660     0.0000     0.0000 c3         1 RBP       0.144800
      3 C11          1.9840     0.0000     1.4400 c3         1 RBP      -0.070400
      4 C3           1.5030     1.2700     2.1490 c3         1 RBP      -0.025400
      5 C4           1.9130     1.2250     3.5990 ca         1 RBP      -0.056300
      6 C10          2.7320     2.2110     4.1160 ca         1 RBP      -0.121500
      7 C9           3.1070     2.1710     5.4450 ca         1 RBP      -0.101500
      8 C7           2.6640     1.1440     6.2580 ca         1 RBP      -0.022900
      9 Br           3.1770     1.0880     8.0770 br         1 RBP      -0.101100
     10 C6           1.8490     0.1530     5.7390 ca         1 RBP      -0.101500
     11 C5           1.4690     0.1980     4.4100 ca         1 RBP      -0.121500
     12 C2          -0.0240     1.3490     2.0500 c3         1 RBP       0.138100
     13 O1          -0.4800     2.5800     2.6140 os         1 RBP      -0.393600
     14 C15         -1.7880     2.3360     3.1360 c3         1 RBP       0.171700
     15 C16         -2.3280     3.6020     3.7480 ca         1 RBP      -0.090300
     16 C17         -3.0600     4.4880     2.9590 ca         1 RBP      -0.108000
     17 C18         -3.5620     5.6400     3.4800 ca         1 RBP      -0.120000
     18 C19         -3.3430     5.9440     4.8340 ca         1 RBP      -0.030000
     19 C20         -3.8470     7.1230     5.4090 ca         1 RBP      -0.119000
     20 C21         -3.6140     7.3850     6.7250 ca         1 RBP      -0.123000
     21 C22         -2.8840     6.4990     7.5140 ca         1 RBP      -0.128000
     22 C24         -2.3800     5.3470     6.9910 ca         1 RBP      -0.111000
     23 C23         -2.5990     5.0430     5.6380 ca         1 RBP      -0.039000
     24 C25         -2.1010     3.8610     5.0640 ca         1 RBP      -0.088000
     25 C14         -0.4370     1.2760     0.5780 c3         1 RBP       0.122800
     26 H13         -0.3340    -0.0720    -0.9410 hn         1 RBP       0.356800
     27 H121         1.8250     0.8860    -0.5100 h1         1 RBP       0.035200
     28 H122         1.8250    -0.8860    -0.5100 h1         1 RBP       0.035200
     29 H111         3.0670    -0.0220     1.4340 hc         1 RBP       0.056200
     30 H112         1.6020    -0.8700     1.9610 hc         1 RBP       0.056200
     31 H3           1.9410     2.1380     1.6700 hc         1 RBP       0.068700
     32 H10          3.0790     3.0160     3.4790 ha         1 RBP       0.139000
     33 H9           3.7490     2.9430     5.8510 ha         1 RBP       0.143000
     34 H6           1.5020    -0.6520     6.3750 ha         1 RBP       0.143000
     35 H5           0.8310    -0.5770     4.0030 ha         1 RBP       0.139000
     36 H2          -0.4620     0.5160     2.5870 h1         1 RBP       0.056700
     37 H151        -2.4420     2.0130     2.3350 h1         1 RBP       0.033200
     38 H152        -1.7350     1.5630     3.8930 h1         1 RBP       0.033200
     39 H17         -3.2320     4.2560     1.9150 ha         1 RBP       0.129000
     40 H18         -4.1290     6.3190     2.8550 ha         1 RBP       0.133000
     41 H20         -4.4170     7.8210     4.8070 ha         1 RBP       0.132000
     42 H21         -4.0040     8.2950     7.1650 ha         1 RBP       0.128000
     43 H22         -2.7130     6.7310     8.5580 ha         1 RBP       0.129000
     44 H24         -1.8140     4.6680     7.6160 ha         1 RBP       0.134000
     45 H25         -1.6300     3.1120     5.6900 ha         1 RBP       0.137000
     46 H141         0.0240     2.0920     0.0360 h1         1 RBP       0.041200
     47 H142        -1.5150     1.3520     0.5050 h1         1 RBP       0.041200
@<TRIPOS>BOND
     1     1     2 1
     2     1    25 1
     3     1    26 1
     4     2     3 1
     5     2    27 1
     6     2    28 1
     7     3     4 1
     8     3    29 1
     9     3    30 1
    10     4     5 1
    11     4    12 1
    12     4    31 1
    13     5     6 ar
    14     5    11 ar
    15     6     7 ar
    16     6    32 1
    17     7     8 ar
    18     7    33 1
    19     8     9 1
    20     8    10 ar
    21    10    11 ar
    22    10    34 1
    23    11    35 1
    24    12    13 1
    25    12    25 1
    26    12    36 1
    27    13    14 1
    28    14    15 1
    29    14    37 1
    30    14    38 1
    31    15    16 ar
    32    15    24 ar
    33    16    17 ar
    34    16    39 1
    35    17    18 ar
    36    17    40 1
    37    18    19 ar
    38    18    23 ar
    39    19    20 ar
    40    19    41 1
    41    20    21 ar
    42    20    42 1
    43    21    22 ar
    44    21    43 1
    45    22    23 ar
    46    22    44 1
    47    23    24 ar
    48    24    45 1
    49    25    46 1
    50    25    47 1
@<TRIPOS>SUBSTRUCTURE
     1 RBP         1 TEMP              0 ****  ****    0 ROOT
