@<TRIPOS>MOLECULE
molecule
   52    54     1     0     0
SMALL
bcc


@<TRIPOS>ATOM
      1 C1           0.0000     0.0000     0.0000 cc         1 RBQ       0.770800
      2 N2           1.3210     0.0000     0.0000 nd         1 RBQ      -0.785300
      3 N3          -0.7010    -0.0580     1.1630 n          1 RBQ      -0.383300
      4 C4           2.0230     0.0000     1.1370 cd         1 RBQ       0.483600
      5 N5          -0.6460     0.1060    -1.2020 nh         1 RBQ      -0.765600
      6 C6          -0.0430    -0.0050     2.3460 c          1 RBQ       0.720700
      7 C7           1.3540     0.0150     2.3530 cc         1 RBQ      -0.456200
      8 C8          -2.0710    -0.1610    -1.3300 c3         1 RBQ       0.206500
      9 C9          -2.6190     0.6040    -2.5370 c3         1 RBQ       0.607900
     10 N10          3.4020    -0.0160     1.1040 nh         1 RBQ      -0.715400
     11 C11         -2.1510    -0.2190     1.1850 c3         1 RBQ       0.094000
     12 C12         -2.8200     0.2730    -0.0810 c3         1 RBQ      -0.122400
     13 O13         -0.6650     0.0270     3.3960 o          1 RBQ      -0.662500
     14 F14         -2.0610     0.0860    -3.7110 f          1 RBQ      -0.213633
     15 F15         -4.0100     0.4680    -2.5820 f          1 RBQ      -0.213633
     16 F16         -2.2860     1.9580    -2.4210 f          1 RBQ      -0.213633
     17 O17          5.9460    -0.9420     0.6230 os         1 RBQ      -0.418600
     18 C18          0.1180     0.4970    -2.3900 c3         1 RBQ       0.229800
     19 C19          4.1810    -0.5610     2.2270 c3         1 RBQ       0.204800
     20 C20          4.1370     0.5080    -0.0590 c3         1 RBQ       0.204800
     21 C21          0.7420    -0.7460    -3.0280 c3         1 RBQ       0.115400
     22 O22         -0.2930    -1.6050    -3.5090 os         1 RBQ      -0.432600
     23 C23          5.1570    -0.5480    -0.5010 c3         1 RBQ       0.117400
     24 C24          5.1980    -1.5630     1.6670 c3         1 RBQ       0.117400
     25 C25          0.1860    -2.8020    -4.1270 c3         1 RBQ       0.140100
     26 C26         -0.8380    -3.9220    -3.9290 c3         1 RBQ      -0.103100
     27 C27          0.3910    -2.5570    -5.6230 c3         1 RBQ      -0.103100
     28 H111        -2.3820    -1.2690     1.3140 h1         1 RBQ       0.077700
     29 H112        -2.5490     0.3370     2.0260 h1         1 RBQ       0.077700
     30 H7           1.9030     0.0150     3.2860 ha         1 RBQ       0.165000
     31 H8          -2.2200    -1.2230    -1.4800 h1         1 RBQ       0.095700
     32 H181         0.9010     1.1890    -2.1050 h1         1 RBQ       0.081200
     33 H182        -0.5440     0.9750    -3.1030 h1         1 RBQ       0.081200
     34 H121        -3.8270    -0.1240    -0.1210 hc         1 RBQ       0.078200
     35 H122        -2.8640     1.3550    -0.0570 hc         1 RBQ       0.078200
     36 H191         3.5170    -1.0650     2.9190 h1         1 RBQ       0.063450
     37 H192         4.7030     0.2430     2.7320 h1         1 RBQ       0.063450
     38 H201         4.6540     1.4190     0.2180 h1         1 RBQ       0.063450
     39 H202         3.4450     0.7070    -0.8680 h1         1 RBQ       0.063450
     40 H231         4.6340    -1.4110    -0.8950 h1         1 RBQ       0.054450
     41 H232         5.8010    -0.1290    -1.2650 h1         1 RBQ       0.054450
     42 H241         4.6750    -2.4250     1.2720 h1         1 RBQ       0.054450
     43 H242         5.8710    -1.8730     2.4570 h1         1 RBQ       0.054450
     44 H211         1.3760    -0.4480    -3.8540 h1         1 RBQ       0.041700
     45 H212         1.3340    -1.2720    -2.2890 h1         1 RBQ       0.041700
     46 H25          1.1270    -3.0900    -3.6750 h1         1 RBQ       0.034700
     47 H261        -1.7740    -3.6420    -4.3970 hc         1 RBQ       0.042200
     48 H262        -0.9980    -4.0820    -2.8700 hc         1 RBQ       0.042200
     49 H263        -0.4680    -4.8340    -4.3800 hc         1 RBQ       0.042200
     50 H271         1.1560    -1.8030    -5.7630 hc         1 RBQ       0.042200
     51 H272        -0.5370    -2.2160    -6.0640 hc         1 RBQ       0.042200
     52 H273         0.7010    -3.4790    -6.1010 hc         1 RBQ       0.042200
@<TRIPOS>BOND
     1     1     2 2
     2     1     3 1
     3     1     5 1
     4     2     4 1
     5     3     6 1
     6     3    11 1
     7     4     7 2
     8     4    10 1
     9     5     8 1
    10     5    18 1
    11     6     7 1
    12     6    13 2
    13     8     9 1
    14     8    12 1
    15     9    14 1
    16     9    15 1
    17     9    16 1
    18    10    19 1
    19    10    20 1
    20    11    12 1
    21    17    23 1
    22    17    24 1
    23    18    21 1
    24    19    24 1
    25    20    23 1
    26    21    22 1
    27    22    25 1
    28    25    26 1
    29    25    27 1
    30    11    28 1
    31    11    29 1
    32     7    30 1
    33     8    31 1
    34    18    32 1
    35    18    33 1
    36    12    34 1
    37    12    35 1
    38    19    36 1
    39    19    37 1
    40    20    38 1
    41    20    39 1
    42    23    40 1
    43    23    41 1
    44    24    42 1
    45    24    43 1
    46    21    44 1
    47    21    45 1
    48    25    46 1
    49    26    47 1
    50    26    48 1
    51    26    49 1
    52    27    50 1
    53    27    51 1
    54    27    52 1
@<TRIPOS>SUBSTRUCTURE
     1 RBQ         1 TEMP              0 ****  ****    0 ROOT
