@<TRIPOS>MOLECULE
molecule
   36    38     1     0     0
SMALL
bcc


@<TRIPOS>ATOM
      1 O61          0.0000     0.0000     0.0000 o          1 RBS      -0.565100
      2 C10          1.2290     0.0000     0.0000 c          1 RBS       0.677300
      3 C11          2.0020     0.0000     1.3080 ce         1 RBS      -0.270200
      4 C51          1.6360    -1.2110     2.0900 c2         1 RBS      -0.145000
      5 N11          2.0670    -0.0070    -1.1250 ns         1 RBS      -0.483100
      6 C9           1.7020    -0.0090    -2.4710 ca         1 RBS       0.073600
      7 C8           2.6780    -0.0190    -3.4620 ca         1 RBS      -0.165000
      8 C13          0.3590    -0.0020    -2.8310 ca         1 RBS      -0.128000
      9 C17         -0.0040    -0.0030    -4.1810 ca         1 RBS      -0.158300
     10 C18          0.9520    -0.0130    -5.1940 ca         1 RBS       0.427600
     11 C7           2.3050    -0.0210    -4.8170 ca         1 RBS      -0.262600
     12 C6           3.2320    -0.0300    -5.8570 ca         1 RBS       0.711200
     13 N3           2.8970    -0.0320    -7.1610 nb         1 RBS      -0.732000
     14 C19          1.5760    -0.0240    -7.4000 ca         1 RBS       0.658900
     15 N2           0.5830    -0.0150    -6.4870 nb         1 RBS      -0.715000
     16 N1           4.6150    -0.0390    -5.5540 nu         1 RBS      -0.788300
     17 C5           5.7360     0.4710    -6.2300 ca         1 RBS       0.182600
     18 C4           5.6140     1.6050    -7.0390 ca         1 RBS      -0.161000
     19 C20          6.9800    -0.1530    -6.0990 ca         1 RBS      -0.161000
     20 C21          8.0930     0.3530    -6.7710 ca         1 RBS      -0.102500
     21 C22          7.9670     1.4850    -7.5780 ca         1 RBS      -0.155000
     22 C3           6.7280     2.1110    -7.7110 ca         1 RBS      -0.102500
     23 H111         2.7100     0.7500     1.6390 ha         1 RBS       0.169000
     24 H511         2.0870    -1.3880     3.0580 ha         1 RBS       0.130500
     25 H512         0.9170    -1.9170     1.6900 ha         1 RBS       0.130500
     26 HN11         3.0500    -0.0120    -0.9380 hn         1 RBS       0.319500
     27 H8           3.7270    -0.0110    -3.1900 ha         1 RBS       0.129000
     28 H13         -0.4060     0.0100    -2.0640 ha         1 RBS       0.179000
     29 H17         -1.0550     0.0020    -4.4450 ha         1 RBS       0.157000
     30 H19          1.2740    -0.0260    -8.4400 h5         1 RBS       0.051100
     31 HN1          4.8380    -0.4970    -4.6930 hn         1 RBS       0.427800
     32 H4           4.6530     2.0930    -7.1450 ha         1 RBS       0.136500
     33 H20          7.0810    -1.0310    -5.4730 ha         1 RBS       0.136500
     34 H21          9.0560    -0.1330    -6.6670 ha         1 RBS       0.133000
     35 H22          8.8310     1.8770    -8.0990 ha         1 RBS       0.131000
     36 H3           6.6300     2.9890    -8.3370 ha         1 RBS       0.133000
@<TRIPOS>BOND
     1     1     2 2
     2     2     3 1
     3     2     5 1
     4     3     4 2
     5     3    23 1
     6     4    24 1
     7     4    25 1
     8     5     6 1
     9     5    26 1
    10     6     8 ar
    11     6     7 ar
    12     7    11 ar
    13     7    27 1
    14     8     9 ar
    15     8    28 1
    16     9    10 ar
    17     9    29 1
    18    10    11 ar
    19    10    15 ar
    20    11    12 ar
    21    12    16 1
    22    12    13 ar
    23    13    14 ar
    24    14    15 ar
    25    14    30 1
    26    16    17 1
    27    16    31 1
    28    17    19 ar
    29    17    18 ar
    30    18    22 ar
    31    18    32 1
    32    19    20 ar
    33    19    33 1
    34    20    21 ar
    35    20    34 1
    36    21    22 ar
    37    21    35 1
    38    22    36 1
@<TRIPOS>SUBSTRUCTURE
     1 RBS         1 TEMP              0 ****  ****    0 ROOT
