@<TRIPOS>MOLECULE
molecule
   30    31     1     0     0
SMALL
bcc


@<TRIPOS>ATOM
      1 N1           0.0000     0.0000     0.0000 na         1 RBV       0.040600
      2 N2           1.2880     0.0000     0.0000 nc         1 RBV      -0.423800
      3 C3           1.7100     0.0000     1.2460 cd         1 RBV       0.412500
      4 N3           3.4160    -0.0010     3.0010 nz         1 RBV      -0.670400
      5 O3           4.0150    -0.0020     0.8640 o          1 RBV      -0.388100
      6 N4           0.6290     0.0010     2.0470 nd         1 RBV      -0.743000
      7 C5          -0.4270     0.0010     1.2760 cc         1 RBV       0.460400
      8 C6           3.1210    -0.0010     1.6870 c          1 RBV       0.461600
      9 C1'         -0.8560     0.0060    -1.1900 c3         1 RBV       0.249800
     10 C2'         -0.4980     1.1980    -2.1140 c3         1 RBV       0.093100
     11 O2'         -1.2040     2.3770    -1.7220 oh         1 RBV      -0.569800
     12 C3'         -0.9860     0.6960    -3.4940 c3         1 RBV       0.098100
     13 O3'         -2.2810     1.2220    -3.7890 oh         1 RBV      -0.568800
     14 C4'         -1.0500    -0.8370    -3.3380 c3         1 RBV       0.124100
     15 O4'         -0.5900    -1.1500    -2.0130 os         1 RBV      -0.382600
     16 C5'         -0.1430    -1.5030    -4.3750 c3         1 RBV       0.143400
     17 O5'         -0.2970    -2.9220    -4.2990 oh         1 RBV      -0.594800
     18 HN3          4.4100    -0.0010     3.1200 hn         1 RBV       0.485800
     19 HN3A         3.0280    -0.8170     3.4300 hn         1 RBV       0.485800
     20 H5          -1.4600     0.0020     1.6060 h5         1 RBV       0.109100
     21 H1'         -1.9030     0.0420    -0.9130 h2         1 RBV       0.125700
     22 H2'          0.5720     1.3660    -2.1240 h1         1 RBV       0.074700
     23 HO2'        -0.6330     3.1240    -1.7940 ho         1 RBV       0.418000
     24 H3'         -0.2760     0.9670    -4.2660 h1         1 RBV       0.062700
     25 HO3'        -2.2530     1.6830    -4.6110 ho         1 RBV       0.420000
     26 H4'         -2.0710    -1.1760    -3.4620 h1         1 RBV       0.101700
     27 H5'          0.8890    -1.2410    -4.1740 h1         1 RBV       0.036200
     28 H5'A        -0.4160    -1.1620    -5.3660 h1         1 RBV       0.036200
     29 HO5'         0.2240    -3.3310    -4.9700 ho         1 RBV       0.416000
     30 H33          3.0290     0.8170     3.4300 hn         1 RBV       0.485800
@<TRIPOS>BOND
     1     1     2 1
     2     1     7 1
     3     1     9 1
     4     2     3 2
     5     3     6 1
     6     3     8 1
     7     4     8 1
     8     5     8 2
     9     6     7 2
    10     9    10 1
    11     9    15 1
    12    10    11 1
    13    10    12 1
    14    12    13 1
    15    12    14 1
    16    14    15 1
    17    14    16 1
    18    16    17 1
    19     4    18 1
    20     4    19 1
    21     7    20 1
    22     9    21 1
    23    10    22 1
    24    11    23 1
    25    12    24 1
    26    13    25 1
    27    14    26 1
    28    16    27 1
    29    16    28 1
    30    17    29 1
    31    30     4 1
@<TRIPOS>SUBSTRUCTURE
     1 RBV         1 TEMP              0 ****  ****    0 ROOT
