@<TRIPOS>MOLECULE
RBZ
   41    43     1     0     0
SMALL
bcc


@<TRIPOS>ATOM
      1 N3          0.1950    0.8430    0.1090 nc        1 RBZ     -0.624100
      2 N1          1.9250    0.4910    1.5920 na        1 RBZ     -0.155300
      3 C2          1.5310    0.7880    0.2740 cd        1 RBZ      0.458700
      4 C7A         0.7440    0.3180    2.3210 ca        1 RBZ     -0.064200
      5 C3A        -0.3440    0.5530    1.3770 ca        1 RBZ      0.068400
      6 C4         -1.6650    0.4670    1.8250 ca        1 RBZ     -0.085000
      7 C5         -1.9120    0.1560    3.1600 ca        1 RBZ     -0.123300
      8 C6         -0.8500   -0.0730    4.0670 ca        1 RBZ     -0.094300
      9 C7          0.4780    0.0070    3.6570 ca        1 RBZ     -0.117000
     10 C8         -3.3120    0.0620    3.6400 c3        1 RBZ     -0.032800
     11 C9         -1.1560   -0.4060    5.4790 c3        1 RBZ     -0.036800
     12 P           7.8300   -0.2830   -1.0670 p5        1 RBZ      1.331900
     13 O1P         8.3960   -0.0640    0.3090 o         1 RBZ     -0.927500
     14 O2P         8.6910   -0.9400   -2.0980 o         1 RBZ     -0.927500
     15 O3P         6.9410    0.8630   -1.5130 o         1 RBZ     -0.927500
     16 O5'         6.5880   -1.4660   -0.7540 os        1 RBZ     -0.562200
     17 C5'         5.9820   -1.4040    0.4690 c3        1 RBZ      0.224400
     18 C4'         4.6750   -0.5740    0.3980 c3        1 RBZ      0.054100
     19 O4'         3.8600   -0.8780    1.5590 os        1 RBZ     -0.428600
     20 C3'         4.9680    0.9400    0.4160 c3        1 RBZ      0.088100
     21 O3'         4.4060    1.5720   -0.7160 oh        1 RBZ     -0.698800
     22 C2'         4.2720    1.4700    1.6840 c3        1 RBZ      0.111100
     23 O2'         3.6570    2.7260    1.5620 oh        1 RBZ     -0.609800
     24 C1'         3.2860    0.3150    2.0780 c3        1 RBZ      0.211800
     25 H2          2.2990    0.9570   -0.5080 h5        1 RBZ      0.117800
     26 H4         -2.4950    0.6420    1.1260 ha        1 RBZ      0.127000
     27 H7          1.2980   -0.1760    4.3650 ha        1 RBZ      0.132000
     28 H81        -3.5160   -0.9600    4.0480 hc        1 RBZ      0.025700
     29 H82        -4.0390    0.2630    2.8150 hc        1 RBZ      0.025700
     30 H83        -3.4950    0.8030    4.4580 hc        1 RBZ      0.025700
     31 H91        -0.2220   -0.5540    6.0740 hc        1 RBZ      0.028700
     32 H92        -1.7610   -1.3450    5.5350 hc        1 RBZ      0.028700
     33 H93        -1.7490    0.4160    5.9530 hc        1 RBZ      0.028700
     34 H5'1        5.6890   -2.4450    0.7960 h1        1 RBZ      0.009700
     35 H5'2        6.6660   -0.9500    1.2420 h1        1 RBZ      0.009700
     36 H4'         4.0820   -0.8540   -0.5100 h1        1 RBZ      0.056700
     37 H3'         6.0960    1.1020    0.4150 h1        1 RBZ      0.171700
     38 HO'3        5.1190    1.5460   -1.3980 ho        1 RBZ      0.509000
     39 H2'         5.0130    1.5730    2.5230 h1        1 RBZ      0.077700
     40 HO'2        3.4610    2.8690    0.6240 ho        1 RBZ      0.427000
     41 H1'         3.2220    0.1730    3.1940 h2        1 RBZ      0.065700
@<TRIPOS>BOND
     1    1    3 2   
     2    1    5 1   
     3    2    3 1   
     4    2    4 1   
     5    2   24 1   
     6    3   25 1   
     7    4    5 ar  
     8    4    9 ar  
     9    5    6 ar  
    10    6    7 ar  
    11    6   26 1   
    12    7    8 ar  
    13    7   10 1   
    14    8    9 ar  
    15    8   11 1   
    16    9   27 1   
    17   10   28 1   
    18   10   29 1   
    19   10   30 1   
    20   11   31 1   
    21   11   32 1   
    22   11   33 1   
    23   12   13 1   
    24   12   14 1   
    25   12   15 1   
    26   12   16 1   
    27   16   17 1   
    28   17   18 1   
    29   17   34 1   
    30   17   35 1   
    31   18   19 1   
    32   18   20 1   
    33   18   36 1   
    34   19   24 1   
    35   20   21 1   
    36   20   22 1   
    37   20   37 1   
    38   21   38 1   
    39   22   23 1   
    40   22   24 1   
    41   22   39 1   
    42   23   40 1   
    43   24   41 1   
@<TRIPOS>SUBSTRUCTURE
     1 RBZ         1 TEMP              0 ****  ****    0 ROOT
