@<TRIPOS>MOLECULE
molecule
   41    43     1     0     0
SMALL
bcc


@<TRIPOS>ATOM
      1 N3           0.0000     0.0000     0.0000 nc         1 RBZ      -0.648100
      2 N1           1.7690     0.0000     1.2780 na         1 RBZ      -0.143300
      3 C2           1.3000     0.0000     0.0000 cd         1 RBZ       0.501700
      4 C7A          0.6720     0.0000     2.1170 ca         1 RBZ      -0.092200
      5 C3A         -0.4570     0.0000     1.2790 ca         1 RBZ       0.098400
      6 C4          -1.7330    -0.0000     1.8470 ca         1 RBZ      -0.078000
      7 C5          -1.8740    -0.0000     3.2060 ca         1 RBZ      -0.116300
      8 C6          -0.7590     0.0050     4.0330 ca         1 RBZ      -0.097300
      9 C7           0.5100     0.0000     3.4950 ca         1 RBZ      -0.115000
     10 C8          -3.2530    -0.0000     3.8130 c3         1 RBZ      -0.034800
     11 C9          -0.9390     0.0050     5.5290 c3         1 RBZ      -0.035800
     12 P            7.5240    -1.6760    -1.6390 p5         1 RBZ       1.145900
     13 O1P          8.0480    -2.3440    -0.4260 o          1 RBZ      -0.906500
     14 O2P          7.3800    -2.7550    -2.8260 o          1 RBZ      -0.906500
     15 O3P          8.5400    -0.5130    -2.0920 o          1 RBZ      -0.906500
     16 O5'          6.0820    -1.0360    -1.3180 os         1 RBZ      -0.525200
     17 C5'          6.2520    -0.1810    -0.1860 c3         1 RBZ       0.164400
     18 C4'          4.9120     0.4630     0.1740 c3         1 RBZ       0.130100
     19 O4'          3.9870    -0.5350     0.6360 os         1 RBZ      -0.361600
     20 C3'          5.0830     1.4380     1.3660 c3         1 RBZ       0.086100
     21 O3'          5.4670     2.7400     0.9150 oh         1 RBZ      -0.577800
     22 C2'          3.6430     1.4480     1.9500 c3         1 RBZ       0.066100
     23 O2'          2.8190     2.3860     1.2560 oh         1 RBZ      -0.569800
     24 C1'          3.1750     0.0010     1.6870 c3         1 RBZ       0.248800
     25 H2           1.9200    -0.0010    -0.8880 h5         1 RBZ       0.105800
     26 H4          -2.6100    -0.0040     1.2100 ha         1 RBZ       0.129000
     27 H7           1.3760     0.0040     4.1450 ha         1 RBZ       0.120000
     28 H81         -3.9950    -0.0080     3.0230 hc         1 RBZ       0.030367
     29 H82         -3.3810     0.8880     4.4190 hc         1 RBZ       0.030367
     30 H83         -3.3750    -0.8810     4.4310 hc         1 RBZ       0.030367
     31 H91         -1.4760    -0.8870     5.8290 hc         1 RBZ       0.031700
     32 H92          0.0320     0.0190     6.0090 hc         1 RBZ       0.031700
     33 H93         -1.5010     0.8820     5.8260 hc         1 RBZ       0.031700
     34 H5'1         6.9780     0.5880    -0.4200 h1         1 RBZ       0.054200
     35 H5'2         6.6030    -0.7640     0.6570 h1         1 RBZ       0.054200
     36 H4'          4.5000     0.9870    -0.6800 h1         1 RBZ       0.076700
     37 H3'          5.7900     1.0450     2.0870 h1         1 RBZ       0.059700
     38 HO'3         6.1180     3.0950     1.4970 ho         1 RBZ       0.390000
     39 H2'          3.6630     1.6560     3.0130 h1         1 RBZ       0.025700
     40 HO'2         2.7690     3.1870     1.7510 ho         1 RBZ       0.395000
     41 H1'          3.3020    -0.5930     2.5850 h2         1 RBZ       0.076700
@<TRIPOS>BOND
     1     1     3 2
     2     1     5 1
     3     2     3 1
     4     2     4 1
     5     2    24 1
     6     3    25 1
     7     4     5 ar
     8     4     9 ar
     9     5     6 ar
    10     6     7 ar
    11     6    26 1
    12     7     8 ar
    13     7    10 1
    14     8     9 ar
    15     8    11 1
    16     9    27 1
    17    10    28 1
    18    10    29 1
    19    10    30 1
    20    11    31 1
    21    11    32 1
    22    11    33 1
    23    12    13 1
    24    12    14 1
    25    12    15 1
    26    12    16 1
    27    16    17 1
    28    17    18 1
    29    17    34 1
    30    17    35 1
    31    18    19 1
    32    18    20 1
    33    18    36 1
    34    19    24 1
    35    20    21 1
    36    20    22 1
    37    20    37 1
    38    21    38 1
    39    22    23 1
    40    22    24 1
    41    22    39 1
    42    23    40 1
    43    24    41 1
@<TRIPOS>SUBSTRUCTURE
     1 RBZ         1 TEMP              0 ****  ****    0 ROOT
