@<TRIPOS>MOLECULE
molecule
   35    37     1     0     0
SMALL
bcc


@<TRIPOS>ATOM
      1 N1           0.0000     0.0000     0.0000 na         1 RC0       0.039600
      2 N3          -2.1350     0.0010    -0.9660 nb         1 RC0      -0.782000
      3 C5          -2.9470     0.0010    -2.0190 ca         1 RC0       0.757200
      4 C6           1.3590     0.0000     0.0000 cc         1 RC0      -0.028600
      5 C7           1.7680     0.0000     1.2890 cc         1 RC0      -0.341300
      6 C10          0.6300     0.0000     2.1040 cc         1 RC0       0.351600
      7 C13         -4.8680     0.1220    -0.5640 ca         1 RC0       0.144600
      8 C15         -5.9440     0.3630     1.9740 ca         1 RC0       0.014400
      9 C17          2.2480    -0.0010    -1.2170 c3         1 RC0      -0.020800
     10 C20         -4.7900     1.0510     1.6460 ca         1 RC0      -0.104000
     11 C21         -6.5560    -0.4550     1.0380 ca         1 RC0      -0.104000
     12 C22          0.6250    -0.0030     3.6100 c3         1 RC0      -0.111400
     13 C2          -0.8230     0.0000    -1.1270 ca         1 RC0       0.860500
     14 N4          -0.4270    -0.0060     1.3340 nd         1 RC0      -0.474800
     15 N8          -0.2690     0.0010    -2.3290 nb         1 RC0      -0.802000
     16 C9          -2.3930     0.0010    -3.3020 ca         1 RC0      -0.321200
     17 C12         -1.0160     0.0010    -3.4230 ca         1 RC0       0.530200
     18 Cl4         -3.4090     0.0010    -4.7080 cl         1 RC0      -0.092400
     19 Cl6         -6.6280     0.5240     3.5610 cl         1 RC0      -0.112400
     20 C18         -6.0240    -0.5720    -0.2300 ca         1 RC0      -0.127500
     21 C19         -4.2510     0.9330     0.3800 ca         1 RC0      -0.127500
     22 H1           2.7960     0.0000     1.6300 ha         1 RC0       0.161000
     23 H2           2.0310    -0.8730    -1.8220 hc         1 RC0       0.057700
     24 H3           2.0670     0.8950    -1.7970 hc         1 RC0       0.057700
     25 H4           3.2860    -0.0260    -0.9060 hc         1 RC0       0.057700
     26 H5          -4.3110     1.6860     2.3810 ha         1 RC0       0.147000
     27 H6          -7.4590    -0.9940     1.2990 ha         1 RC0       0.147000
     28 H7           0.5750     1.0170     3.9730 hc         1 RC0       0.053367
     29 H8           1.5320    -0.4720     3.9740 hc         1 RC0       0.053367
     30 H9          -0.2350    -0.5560     3.9680 hc         1 RC0       0.053367
     31 H10         -4.9270    -0.0720    -2.6410 hn         1 RC0       0.470800
     32 H11         -0.5530     0.0010    -4.4020 h4         1 RC0       0.046100
     33 H12         -6.5030    -1.2110    -0.9620 ha         1 RC0       0.150000
     34 H13         -3.3470     1.4720     0.1240 ha         1 RC0       0.150000
     35 N11         -4.3230     0.0010    -1.8460 nu         1 RC0      -0.755300
@<TRIPOS>BOND
     1    12     6 1
     2     6    14 2
     3     6     5 1
     4    14     1 1
     5     5     4 2
     6    15    17 ar
     7    15    13 ar
     8     1     4 1
     9     1    13 1
    10     4     9 1
    11    17    16 ar
    12    13     2 ar
    13     2     3 ar
    14    16     3 ar
    15    16    18 1
    16     3    35 1
    17    35     7 1
    18    20     7 ar
    19    20    11 ar
    20     7    21 ar
    21    11     8 ar
    22    21    10 ar
    23     8    10 ar
    24     8    19 1
    25     5    22 1
    26     9    23 1
    27     9    24 1
    28     9    25 1
    29    10    26 1
    30    11    27 1
    31    12    28 1
    32    12    29 1
    33    12    30 1
    34    35    31 1
    35    17    32 1
    36    20    33 1
    37    21    34 1
@<TRIPOS>SUBSTRUCTURE
     1 RC0         1 TEMP              0 ****  ****    0 ROOT
