@<TRIPOS>MOLECULE
molecule
   35    35     1     0     0
SMALL
bcc


@<TRIPOS>ATOM
      1 C1           0.0000     0.0000     0.0000 ce         1 RC1      -0.226400
      2 C2           1.3160     0.0000     0.0000 c2         1 RC1      -0.119200
      3 C3           2.1510     0.0000     1.2470 c3         1 RC1       0.185300
      4 C4           1.3050    -0.4210     2.4510 c3         1 RC1       0.163100
      5 C5           0.0130     0.4050     2.4520 c3         1 RC1       0.081100
      6 C6          -0.8350    -0.0090     1.2480 c3         1 RC1      -0.027200
      7 C7          -0.6930     0.0090    -1.2960 c          1 RC1       0.900800
      8 O1           2.6640     1.3140     1.4730 os         1 RC1      -0.436200
      9 O2           2.0370    -0.1880     3.6560 oh         1 RC1      -0.448800
     10 O3          -0.7120     0.1600     3.6580 os         1 RC1      -0.394600
     11 O4          -0.0510     0.0180    -2.3280 o          1 RC1      -0.934300
     12 O5          -2.0410     0.0090    -1.3400 o          1 RC1      -0.934300
     13 P1           4.2700     1.1950     1.4600 p5         1 RC1       1.242900
     14 O6           4.6980     0.1790     2.4470 o          1 RC1      -0.963500
     15 O7           4.7630     0.7560    -0.0080 o          1 RC1      -0.963500
     16 O8           4.9170     2.6190     1.8400 o          1 RC1      -0.963500
     17 C8          -1.0820     1.4350     4.1840 c3         1 RC1      -0.093400
     18 C9          -1.8170     2.2380     3.1090 c3         1 RC1      -0.075100
     19 C10         -1.9870     1.2450     5.3750 c          1 RC1       0.954600
     20 O9          -2.1990     0.1340     5.8010 o          1 RC1      -0.933800
     21 O10         -2.5570     2.3080     5.9610 o          1 RC1      -0.933800
     22 P2           0.4170     2.3370     4.6990 p5         1 RC1       1.073700
     23 O11         -0.0020     3.7590     5.3280 o          1 RC1      -0.913500
     24 O12          1.2890     2.5550     3.5240 o          1 RC1      -0.913500
     25 O13          1.2100     1.4750     5.8040 o          1 RC1      -0.913500
     26 H2           1.8110     0.1440    -0.9530 ha         1 RC1       0.114000
     27 H3           2.9720    -0.6960     1.1270 h1         1 RC1       0.020700
     28 H4           1.0600    -1.4730     2.3680 h1         1 RC1      -0.071300
     29 H5           0.2570     1.4580     2.3770 h1         1 RC1       0.173700
     30 H61         -1.6570     0.6870     1.1330 hc         1 RC1       0.011200
     31 H62         -1.2230    -1.0080     1.4110 hc         1 RC1       0.011200
     32 HO2          2.3390    -1.0100     4.0040 ho         1 RC1       0.321000
     33 H91         -2.2410     3.1310     3.5520 hc         1 RC1       0.002700
     34 H92         -1.1200     2.5190     2.3280 hc         1 RC1       0.002700
     35 H93         -2.6090     1.6340     2.6850 hc         1 RC1       0.002700
@<TRIPOS>BOND
     1     1     2 2
     2     1     6 1
     3     1     7 1
     4     2     3 1
     5     2    26 1
     6     3     4 1
     7     3     8 1
     8     3    27 1
     9     4     5 1
    10     4     9 1
    11     4    28 1
    12     5     6 1
    13     5    10 1
    14     5    29 1
    15     6    30 1
    16     6    31 1
    17     7    11 1
    18     7    12 1
    19     8    13 1
    20     9    32 1
    21    10    17 1
    22    13    14 1
    23    13    15 1
    24    13    16 1
    25    17    18 1
    26    17    19 1
    27    17    22 1
    28    18    33 1
    29    18    34 1
    30    18    35 1
    31    19    20 1
    32    19    21 1
    33    22    23 1
    34    22    24 1
    35    22    25 1
@<TRIPOS>SUBSTRUCTURE
     1 RC1         1 TEMP              0 ****  ****    0 ROOT
