@<TRIPOS>MOLECULE
RC1
   35    35     1     0     0
SMALL
bcc


@<TRIPOS>ATOM
      1 C1          0.0140   -0.6920    0.3250 ce        1 RC1     -0.181400
      2 C2          1.2950   -0.3870    0.0660 c2        1 RC1     -0.186200
      3 C3          2.3180    0.0990    1.0640 c3        1 RC1      0.265300
      4 C4          1.6220    0.5310    2.4000 c3        1 RC1      0.137100
      5 C5          0.0830    0.7630    2.3770 c3        1 RC1      0.104100
      6 C6         -0.6110   -0.3890    1.6440 c3        1 RC1     -0.038200
      7 C7         -0.8260   -1.4190   -0.7010 c         1 RC1      0.919800
      8 O1          3.1930    1.0260    0.5170 os        1 RC1     -0.570200
      9 O2          2.2630    1.6750    2.9380 oh        1 RC1     -0.615800
     10 O3         -0.3560    0.8100    3.7540 os        1 RC1     -0.390600
     11 O4         -1.3230   -0.8190   -1.7120 o         1 RC1     -0.922300
     12 O5         -1.0290   -2.6780   -0.5890 o         1 RC1     -0.922300
     13 P1          4.7730    0.5530    0.0350 p5        1 RC1      1.340900
     14 O6          5.1570   -0.6790    0.8260 o         1 RC1     -0.964167
     15 O7          4.6730    0.2840   -1.4550 o         1 RC1     -0.964167
     16 O8          5.6590    1.7530    0.3130 o         1 RC1     -0.964167
     17 C8         -1.2630    1.8130    4.1670 c3        1 RC1     -0.066400
     18 C9         -0.7250    3.2060    3.9620 c3        1 RC1     -0.095100
     19 C10        -2.6740    1.7100    3.5650 c         1 RC1      0.936600
     20 O9         -3.2870    0.6010    3.4250 o         1 RC1     -0.938800
     21 O10        -3.3020    2.7780    3.2160 o         1 RC1     -0.938800
     22 P2         -0.8430    1.7700    6.1510 p5        1 RC1      1.219700
     23 O11        -1.6570    2.9040    6.7520 o         1 RC1     -0.954167
     24 O12         0.6340    2.0820    6.2300 o         1 RC1     -0.954167
     25 O13        -1.2110    0.4560    6.8000 o         1 RC1     -0.954167
     26 H2          1.7060   -0.5540   -0.9440 ha        1 RC1      0.104000
     27 H3          2.9330   -0.8230    1.3390 h1        1 RC1      0.019700
     28 H4          1.7890   -0.3290    3.1200 h1        1 RC1     -0.009300
     29 H5         -0.1380    1.7330    1.8630 h1        1 RC1      0.038700
     30 H61        -0.5700   -1.3060    2.2910 hc        1 RC1      0.048700
     31 H62        -1.6960   -0.1250    1.5280 hc        1 RC1      0.048700
     32 HO2         1.7790    1.8710    3.7590 ho        1 RC1      0.421000
     33 H91        -1.3250    3.8910    4.6120 hc        1 RC1      0.008700
     34 H92        -0.8070    3.5580    2.9050 hc        1 RC1      0.008700
     35 H93         0.3470    3.2470    4.2790 hc        1 RC1      0.008700
@<TRIPOS>BOND
     1    1    2 2   
     2    1    6 1   
     3    1    7 1   
     4    2    3 1   
     5    2   26 1   
     6    3    4 1   
     7    3    8 1   
     8    3   27 1   
     9    4    5 1   
    10    4    9 1   
    11    4   28 1   
    12    5    6 1   
    13    5   10 1   
    14    5   29 1   
    15    6   30 1   
    16    6   31 1   
    17    7   11 1   
    18    7   12 1   
    19    8   13 1   
    20    9   32 1   
    21   10   17 1   
    22   13   14 1   
    23   13   15 1   
    24   13   16 1   
    25   17   18 1   
    26   17   19 1   
    27   17   22 1   
    28   18   33 1   
    29   18   34 1   
    30   18   35 1   
    31   19   20 1   
    32   19   21 1   
    33   22   23 1   
    34   22   24 1   
    35   22   25 1   
@<TRIPOS>SUBSTRUCTURE
     1 RC1         1 TEMP              0 ****  ****    0 ROOT
