@<TRIPOS>MOLECULE
molecule
   47    50     1     0     0
SMALL
bcc


@<TRIPOS>ATOM
      1 C            0.0000     0.0000     0.0000 c          1 RC2       0.633100
      2 N            0.2030     0.0090    -2.4220 nz         1 RC2      -0.793600
      3 O            1.2130     0.0000     0.0000 o          1 RC2      -0.583100
      4 S            3.8920    -2.6620     2.4160 ss         1 RC2      -0.261300
      5 C01          8.9190    -7.4500     4.1770 c3         1 RC2       0.137800
      6 N01         -0.6740     0.0000     1.1670 ns         1 RC2      -0.428100
      7 C02          8.9320    -6.5660     1.9190 c3         1 RC2       0.137800
      8 N02          9.6510    -7.3830     2.9060 n7         1 RC2      -0.817200
      9 C03          5.2240    -3.2510     3.4250 cc         1 RC2       0.216600
     10 N03          8.2360    -5.1450     3.7730 nh         1 RC2      -0.706400
     11 C04          5.8890    -3.0440     5.6530 c          1 RC2       0.610500
     12 N04          4.9970    -2.7400     4.6660 n          1 RC2       0.053300
     13 C05          8.8330    -5.1250     2.4290 c3         1 RC2       0.242300
     14 N05          6.2590    -4.0180     3.1470 nd         1 RC2      -0.375600
     15 C06          0.2280     0.4360     4.7080 ca         1 RC2      -0.103000
     16 N06          3.8570    -1.9520     4.7750 nc         1 RC2      -0.415800
     17 C07          6.9850    -3.8500     5.3730 cc         1 RC2      -0.402200
     18 C08          3.1150    -1.7640     3.7300 cd         1 RC2       0.504900
     19 C09          8.8190    -6.0450     4.7800 c3         1 RC2       0.242300
     20 C10          1.8730    -0.9630     3.6510 ca         1 RC2      -0.095500
     21 C11          1.3860    -0.3100     4.7840 ca         1 RC2      -0.069000
     22 C12         -0.7530     0.0040    -1.3060 c3         1 RC2       0.011800
     23 C13         -0.4550     0.5390     3.5110 ca         1 RC2      -0.121000
     24 C14          0.0210    -0.1070     2.3770 ca         1 RC2       0.012600
     25 C15          1.1840    -0.8590     2.4440 ca         1 RC2      -0.100000
     26 C16          7.1560    -4.3390     4.0820 cd         1 RC2       0.459600
     27 HN           0.8110     0.7990    -2.3370 hn         1 RC2       0.468800
     28 HNA          0.7440    -0.8330    -2.4020 hn         1 RC2       0.468800
     29 H01          9.4490    -8.1000     4.8640 h1         1 RC2       0.043450
     30 H01A         7.9240    -7.8380     4.0000 h1         1 RC2       0.043450
     31 HN01        -1.6740     0.0510     1.1670 hn         1 RC2       0.339500
     32 H02          7.9360    -6.9670     1.7760 h1         1 RC2       0.043450
     33 H02A         9.4710    -6.5790     0.9790 h1         1 RC2       0.043450
     34 HN02         9.7770    -8.3080     2.5450 hn         1 RC2       0.362800
     35 H05          9.8230    -4.6890     2.4780 h1         1 RC2       0.063950
     36 H05A         8.2070    -4.5460     1.7620 h1         1 RC2       0.063950
     37 H06         -0.1480     0.9420     5.5900 ha         1 RC2       0.161000
     38 H07          7.7790    -3.9570     6.1020 ha         1 RC2       0.184000
     39 H09          8.1820    -6.0710     5.6560 h1         1 RC2       0.063950
     40 H09A         9.8070    -5.6950     5.0520 h1         1 RC2       0.063950
     41 H11          1.9190    -0.3890     5.7240 ha         1 RC2       0.178000
     42 H12         -1.3750    -0.8810    -1.3670 hx         1 RC2       0.127200
     43 H12A        -1.3770     0.8880    -1.3600 hx         1 RC2       0.127200
     44 H13         -1.3640     1.1260     3.4560 ha         1 RC2       0.141000
     45 H15          1.5090    -1.4310     1.5840 ha         1 RC2       0.150000
     46 HN3         -0.2950     0.0860    -3.2870 hn         1 RC2       0.468800
     47 O01          5.7250    -2.6060     6.7820 o          1 RC2      -0.598500
@<TRIPOS>BOND
     1     1     3 2
     2     1     6 1
     3     1    22 1
     4     2    22 1
     5     4     9 1
     6     4    18 1
     7     5     8 1
     8     5    19 1
     9     6    24 1
    10    47    11 2
    11     7     8 1
    12     7    13 1
    13     9    12 1
    14     9    14 2
    15    10    13 1
    16    10    19 1
    17    10    26 1
    18    11    12 1
    19    11    17 1
    20    12    16 1
    21    14    26 1
    22    15    21 ar
    23    15    23 ar
    24    16    18 2
    25    17    26 2
    26    18    20 1
    27    20    21 ar
    28    20    25 ar
    29    23    24 ar
    30    24    25 ar
    31     2    27 1
    32     2    28 1
    33     5    29 1
    34     5    30 1
    35     6    31 1
    36     7    32 1
    37     7    33 1
    38     8    34 1
    39    13    35 1
    40    13    36 1
    41    15    37 1
    42    17    38 1
    43    19    39 1
    44    19    40 1
    45    21    41 1
    46    22    42 1
    47    22    43 1
    48    23    44 1
    49    25    45 1
    50    46     2 1
@<TRIPOS>SUBSTRUCTURE
     1 RC2         1 TEMP              0 ****  ****    0 ROOT
