@<TRIPOS>MOLECULE
RC5
   41    41     1     0     0
SMALL
bcc


@<TRIPOS>ATOM
      1 O12          0.0000     0.0000     0.0000 o          1 RC5      -0.678100
      2 C4           1.2130     0.0000     0.0000 c          1 RC5       0.612100
      3 N9           1.8870     0.0000     1.1680 n          1 RC5      -0.065300
      4 O10          3.3020     0.0000     1.1680 oh         1 RC5      -0.418100
      5 C11          1.1540    -0.0020     2.4360 c3         1 RC5       0.087300
      6 C3           1.9670    -0.0040    -1.3050 c3         1 RC5      -0.138400
      7 C2           0.9760    -0.1100    -2.4660 c3         1 RC5       0.020300
      8 C1           1.7440    -0.2830    -3.7770 c3         1 RC5      -0.069600
      9 P5           2.3710    -1.9910    -3.8950 p5         1 RC5       0.441700
     10 O7           3.0980    -2.1990    -5.3170 o          1 RC5      -0.745500
     11 O6           3.4240    -2.2590    -2.7080 o          1 RC5      -0.745500
     12 O8           1.2410    -2.9400    -3.7760 o          1 RC5      -0.745500
     13 C13          0.1300     1.1630    -2.5330 c3         1 RC5      -0.064400
     14 C14         -0.9420     1.0060    -3.6130 c3         1 RC5      -0.029400
     15 C15         -1.7870     2.2800    -3.6800 c3         1 RC5       0.014900
     16 C16         -2.8440     2.1260    -4.7440 ca         1 RC5      -0.034300
     17 C17         -4.0800     1.5990    -4.4190 ca         1 RC5      -0.092500
     18 C19         -5.0490     1.4570    -5.3940 ca         1 RC5      -0.120500
     19 C21         -4.7820     1.8420    -6.6950 ca         1 RC5      -0.132000
     20 C20         -3.5460     2.3690    -7.0190 ca         1 RC5      -0.120500
     21 C18         -2.5790     2.5170    -6.0430 ca         1 RC5      -0.092500
     22 H1           3.6160     0.7810     1.5930 ho         1 RC5       0.357000
     23 H2           0.5590     0.9000     2.5110 h1         1 RC5      -0.004300
     24 H3           0.5030    -0.8670     2.4760 h1         1 RC5      -0.004300
     25 H4           1.8570    -0.0400     3.2590 h1         1 RC5      -0.004300
     26 H5           2.5340     0.9140    -1.3970 hc         1 RC5       0.077700
     27 H6           2.6430    -0.8500    -1.3280 hc         1 RC5       0.077700
     28 H7           0.3290    -0.9660    -2.3110 hc         1 RC5       0.064700
     29 H8           1.0830    -0.0820    -4.6120 hc         1 RC5      -0.002800
     30 H9           2.5760     0.4100    -3.8020 hc         1 RC5      -0.002800
     31 H12         -0.3450     1.3310    -1.5740 hc         1 RC5      -0.001800
     32 H13          0.7650     2.0060    -2.7740 hc         1 RC5      -0.001800
     33 H14         -1.5780     0.1630    -3.3710 hc         1 RC5       0.037700
     34 H15         -0.4670     0.8370    -4.5710 hc         1 RC5       0.037700
     35 H16         -2.2620     2.4500    -2.7220 hc         1 RC5       0.005700
     36 H17         -1.1510     3.1230    -3.9230 hc         1 RC5       0.005700
     37 H18         -4.2980     1.3220    -3.3950 ha         1 RC5       0.107000
     38 H19         -6.0250     1.0630    -5.1350 ha         1 RC5       0.088500
     39 H20         -5.5490     1.7520    -7.4560 ha         1 RC5       0.084000
     40 H21         -3.3340     2.6640    -8.0400 ha         1 RC5       0.088500
     41 H22         -1.7650     3.0750    -6.4900 ha         1 RC5       0.107000
@<TRIPOS>BOND
     1     1     2 2   
     2     2     3 1   
     3     2     6 1   
     4     3     4 1   
     5     3     5 1   
     6     4    22 1   
     7     5    23 1   
     8     5    24 1   
     9     5    25 1   
    10     6     7 1   
    11     6    26 1   
    12     6    27 1   
    13     7     8 1   
    14     7    13 1   
    15     7    28 1   
    16     8     9 1   
    17     8    29 1   
    18     8    30 1   
    19     9    10 1   
    20     9    11 1   
    21     9    12 1   
    22    13    14 1   
    23    13    31 1   
    24    13    32 1   
    25    14    15 1   
    26    14    33 1   
    27    14    34 1   
    28    15    16 1   
    29    15    35 1   
    30    15    36 1   
    31    16    17 ar  
    32    16    21 ar  
    33    17    18 ar  
    34    17    37 1   
    35    18    19 ar  
    36    18    38 1   
    37    19    20 ar  
    38    19    39 1   
    39    20    21 ar  
    40    20    40 1   
    41    21    41 1   
@<TRIPOS>SUBSTRUCTURE
     1 RC5         1 TEMP              0 ****  ****    0 ROOT
