@<TRIPOS>MOLECULE
molecule
   61    64     1     0     0
SMALL
bcc


@<TRIPOS>ATOM
      1 C2           0.0000     0.0000     0.0000 ca         1 RC8       1.001900
      2 C4          -0.0990     0.0120     2.3030 ca         1 RC8       0.516800
      3 C5           1.3040     0.0110     2.3510 ca         1 RC8      -0.259200
      4 C6           2.0140     0.0000     1.1370 ca         1 RC8       0.818200
      5 C8           0.5880     0.0310     4.3980 cc         1 RC8       0.395700
      6 C10         -2.1730     1.2860     4.8990 c3         1 RC8      -0.107600
      7 C12          0.0880    -0.0000    -2.4670 c3         1 RC8       0.260500
      8 C15          0.4580    -1.4370    -2.8380 c3         1 RC8       0.118400
      9 C13         -0.7680     0.6100    -3.5790 c3         1 RC8      -0.095400
     10 N2          -0.6690     0.0010    -1.2120 nu         1 RC8      -0.886900
     11 N1           1.3270     0.0000     0.0000 nb         1 RC8      -0.892000
     12 N9          -0.5230     0.0240     3.6070 na         1 RC8      -0.253000
     13 N7           1.6590     0.0230     3.6600 nd         1 RC8      -0.578100
     14 N3          -0.7060     0.0060     1.1190 nb         1 RC8      -0.865000
     15 N6           3.3970    -0.0010     1.1270 nu         1 RC8      -0.891900
     16 CA'          4.1200    -0.0140    -0.1470 c3         1 RC8       0.285100
     17 C1'          5.6040    -0.0110     0.1170 ca         1 RC8      -0.111300
     18 C6'          6.2810     1.1900     0.2320 ca         1 RC8      -0.118000
     19 C5'          7.6400     1.1970     0.4750 ca         1 RC8      -0.105000
     20 C4'          8.3290    -0.0070     0.6030 cp         1 RC8      -0.138500
     21 C3'          7.6410    -1.2140     0.4860 ca         1 RC8      -0.105000
     22 C2'          6.2810    -1.2100     0.2500 ca         1 RC8      -0.118000
     23 C1B          9.7900    -0.0050     0.8630 cp         1 RC8       0.481800
     24 N1B         10.4380     1.1470     0.9730 nb         1 RC8      -0.691000
     25 C5B         11.7330     1.1930     1.2040 ca         1 RC8       0.426200
     26 C4B         12.4700     0.0300     1.3410 ca         1 RC8      -0.257300
     27 C3B         11.8330    -1.1970     1.2340 ca         1 RC8      -0.090000
     28 C2B         10.4700    -1.2140     0.9970 ca         1 RC8      -0.242300
     29 H8           0.5800     0.0420     5.4820 h5         1 RC8       0.073800
     30 H9          -2.5510     0.0400     3.1880 h1         1 RC8       0.091700
     31 H10         -1.6400     1.2120     5.8390 hc         1 RC8       0.046200
     32 H10A        -3.2360     1.3650     5.0930 hc         1 RC8       0.046200
     33 H10B        -1.8380     2.1650     4.3620 hc         1 RC8       0.046200
     34 H12          0.9910     0.5850    -2.3440 h1         1 RC8       0.083700
     35 H14         -1.3850     2.5840    -4.1620 hc         1 RC8       0.036033
     36 H14A        -1.7870     2.1600    -2.4920 hc         1 RC8       0.036033
     37 H14B        -0.1180     2.5530    -2.9280 hc         1 RC8       0.036033
     38 HO1         -0.4990    -3.0420    -3.4160 ho         1 RC8       0.401000
     39 H15          1.0920    -1.4310    -3.7170 h1         1 RC8       0.030700
     40 H15A         0.9890    -1.8980    -2.0140 h1         1 RC8       0.030700
     41 H13         -1.7100     0.0790    -3.6420 hc         1 RC8       0.055200
     42 H13A        -0.2430     0.5290    -4.5230 hc         1 RC8       0.055200
     43 HN2         -1.6700    -0.0230    -1.2320 hn         1 RC8       0.462800
     44 H11         -1.6400    -1.1210     5.8610 hc         1 RC8       0.046200
     45 H11A        -1.8200    -2.0860     4.3890 hc         1 RC8       0.046200
     46 H11B        -3.2340    -1.3150     5.1190 hc         1 RC8       0.046200
     47 HN6          3.9040     0.0050     1.9900 hn         1 RC8       0.469800
     48 HA'          3.8540    -0.9030    -0.7040 h1         1 RC8       0.055200
     49 HA'A         3.8550     0.8660    -0.7210 h1         1 RC8       0.055200
     50 H6'          5.7450     2.1250     0.1330 ha         1 RC8       0.137500
     51 H5'          8.1700     2.1370     0.5650 ha         1 RC8       0.145500
     52 H3'          8.1710    -2.1540     0.5880 ha         1 RC8       0.145500
     53 H2'          5.7450    -2.1470     0.1600 ha         1 RC8       0.137500
     54 H5B         12.2280     2.1530     1.2870 h4         1 RC8       0.024100
     55 H4B         13.5360     0.0780     1.5290 ha         1 RC8       0.138000
     56 H3B         12.3890    -2.1210     1.3400 ha         1 RC8       0.138000
     57 H2B          9.9400    -2.1550     0.9070 ha         1 RC8       0.141000
     58 C9          -1.9150     0.0290     4.0650 c3         1 RC8       0.054000
     59 C14         -1.0340     2.0840    -3.2680 c3         1 RC8      -0.094100
     60 O1          -0.7300    -2.1790    -3.1140 oh         1 RC8      -0.613800
     61 C11         -2.1740    -1.2120     4.9220 c3         1 RC8      -0.107600
@<TRIPOS>BOND
     1    10     1 1
     2    14     1 ar
     3     1    11 ar
     4    14     2 ar
     5    12     2 1
     6     2     3 ar
     7     3     4 ar
     8     3    13 1
     9    11     4 ar
    10     4    15 1
    11    12     5 1
    12     5    13 2
    13     5    29 1
    14     6    58 1
    15    58    12 1
    16    58    61 1
    17    58    30 1
    18     6    31 1
    19     6    32 1
    20     6    33 1
    21     9     7 1
    22     7     8 1
    23     7    10 1
    24     7    34 1
    25    59     9 1
    26    59    35 1
    27    59    36 1
    28    59    37 1
    29     8    60 1
    30    60    38 1
    31     8    39 1
    32     8    40 1
    33     9    41 1
    34     9    42 1
    35    10    43 1
    36    61    44 1
    37    61    45 1
    38    61    46 1
    39    16    15 1
    40    15    47 1
    41    16    17 1
    42    16    48 1
    43    16    49 1
    44    18    17 ar
    45    17    22 ar
    46    18    19 ar
    47    18    50 1
    48    19    20 ar
    49    19    51 1
    50    20    21 ar
    51    20    23 1
    52    22    21 ar
    53    21    52 1
    54    22    53 1
    55    28    23 ar
    56    23    24 ar
    57    24    25 ar
    58    26    25 ar
    59    25    54 1
    60    27    26 ar
    61    26    55 1
    62    28    27 ar
    63    27    56 1
    64    28    57 1
@<TRIPOS>SUBSTRUCTURE
     1 RC8         1 TEMP              0 ****  ****    0 ROOT
