@<TRIPOS>MOLECULE
RCA
   37    37     1     0     0
SMALL
bcc


@<TRIPOS>ATOM
      1 O2          0.1790   -0.9800   -0.3620 o         1 RCA     -0.348000
      2 C3          2.4870   -0.4430    0.0000 c2        1 RCA     -0.379000
      3 C4          2.2650    0.0590   -2.3610 c1        1 RCA     -0.115000
      4 C5          3.4300   -0.0050    0.8930 c2        1 RCA      0.139000
      5 C1          1.7610    0.0790    2.6640 c2        1 RCA      0.394000
      6 N1          3.0860    0.2610    2.2050 n         1 RCA     -0.308000
      7 C2          1.0920   -0.6260    0.4050 c2        1 RCA      0.353000
      8 N2          0.7910   -0.3610    1.7510 n         1 RCA     -0.362000
      9 C11         6.5100    1.5730   -0.7690 c3        1 RCA     -0.037000
     10 N4          7.1580    2.8710   -0.8290 n         1 RCA     -0.315000
     11 C10         7.5210    3.4980    0.3810 c2        1 RCA      0.376000
     12 C12         7.5180    0.4120   -0.5770 c3        1 RCA     -0.063000
     13 O5          8.5680    0.5070   -1.5170 oh        1 RCA     -0.315000
     14 C7          5.3890    1.5460    0.3110 c3        1 RCA     -0.053000
     15 N3          6.9090    3.0710    1.5840 n         1 RCA     -0.370000
     16 C9          5.9510    2.0700    1.6380 c2        1 RCA      0.317000
     17 C6          4.8690    0.1160    0.4640 c3        1 RCA     -0.135000
     18 C8          4.2620    2.4790   -0.1180 c3        1 RCA     -0.221000
     19 H43         1.2910   -0.4180   -2.5540 ha        1 RCA      0.037000
     20 H42         2.1610    1.1390   -2.1790 ha        1 RCA      0.037000
     21 H41         2.7920   -0.7540   -1.0500 ha        1 RCA      0.239000
     22 H1          3.7650    0.5930    2.8630 hn        1 RCA      0.297000
     23 H2         -0.1380   -0.4870    2.0920 hn        1 RCA      0.269000
     24 H11         6.0100    1.4310   -1.7760 h1        1 RCA      0.126000
     25 H4          7.8660    2.9410   -1.5350 hn        1 RCA      0.244000
     26 H122        8.0220    0.4780    0.4240 h1        1 RCA      0.102500
     27 H121        6.9990   -0.5770   -0.6710 h1        1 RCA      0.102500
     28 H5          8.2070    0.2720   -2.3810 ho        1 RCA      0.205000
     29 H3          7.2070    3.5150    2.4280 hn        1 RCA      0.270000
     30 H62         5.5190   -0.4390    1.1960 hc        1 RCA      0.125500
     31 H61         4.9470   -0.4000   -0.5350 hc        1 RCA      0.125500
     32 H83         4.6480    3.4970   -0.3680 hc        1 RCA      0.102333
     33 H82         3.5120    2.5850    0.7030 hc        1 RCA      0.102333
     34 H81         3.7540    2.0570   -1.0200 hc        1 RCA      0.102333
     35 O1          1.4770    0.3110    3.8570 o         1 RCA     -0.349000
     36 O4          8.3220    4.4540    0.4130 o         1 RCA     -0.341000
     37 O3          5.5680    1.6560    2.7470 o         1 RCA     -0.356000
@<TRIPOS>BOND
     1    1    7 1   
     2    2    4 1   
     3    2    7 1   
     4    2   21 1   
     5    3   19 1   
     6    3   20 1   
     7    4    6 1   
     8    4   17 1   
     9    5    6 1   
    10    5    8 1   
    11    5   35 1   
    12    6   22 1   
    13    7    8 1   
    14    8   23 1   
    15    9   10 1   
    16    9   12 1   
    17    9   14 1   
    18    9   24 1   
    19   10   11 1   
    20   10   25 1   
    21   11   15 1   
    22   11   36 1   
    23   12   13 1   
    24   12   26 1   
    25   12   27 1   
    26   13   28 1   
    27   14   16 1   
    28   14   17 1   
    29   14   18 1   
    30   15   16 1   
    31   15   29 1   
    32   16   37 1   
    33   17   30 1   
    34   17   31 1   
    35   18   32 1   
    36   18   33 1   
    37   18   34 1   
@<TRIPOS>SUBSTRUCTURE
     1 RCA         1 TEMP              0 ****  ****    0 ROOT
