@<TRIPOS>MOLECULE
RCG
   68    72     1     0     0
SMALL
bcc


@<TRIPOS>ATOM
      1 C1           0.0000     0.0000     0.0000 c3         1 RCG       0.085300
      2 C10          0.0010     4.3280    -4.0120 ca         1 RCG       0.247100
      3 C11          0.4670     5.6350    -4.0070 ca         1 RCG      -0.364000
      4 C12          1.8330     5.8760    -4.0080 ca         1 RCG       0.232100
      5 C13          2.7290     4.8200    -4.0120 ca         1 RCG      -0.208000
      6 C14          2.2660     3.5070    -4.0140 ca         1 RCG       0.252100
      7 C15          1.3160     8.1970    -4.0020 c3         1 RCG       0.245700
      8 C16         -2.2030     5.2180    -3.9950 c3         1 RCG       0.247700
      9 C17          2.2170     1.0500    -5.9500 ca         1 RCG      -0.148300
     10 C18          1.2930     1.6250    -6.8030 ca         1 RCG      -0.041500
     11 C19          1.3920     1.4230    -8.1660 ca         1 RCG      -0.185000
     12 C2           2.1980     0.0000     1.2680 c3         1 RCG       0.085300
     13 C20          2.4190     0.6430    -8.6780 ca         1 RCG       0.156100
     14 C21          3.3450     0.0680    -7.8180 ca         1 RCG      -0.185000
     15 C22          3.2410     0.2730    -6.4570 ca         1 RCG      -0.041500
     16 C23          3.6010    -0.3720   -10.4750 c3         1 RCG       0.243700
     17 C24          2.1570    -1.2160    -4.5180 ca         1 RCG      -0.079300
     18 C25          3.1940    -2.0970    -4.7530 ca         1 RCG      -0.103500
     19 C26          2.9860    -3.2170    -5.5380 ca         1 RCG      -0.101000
     20 C27          1.7390    -3.4540    -6.0840 ca         1 RCG      -0.105000
     21 C28          0.7000    -2.5730    -5.8490 ca         1 RCG      -0.101000
     22 C29          0.9100    -1.4530    -5.0650 ca         1 RCG      -0.103500
     23 C3           2.1380     0.0010    -1.1680 c          1 RCG       0.612100
     24 C4           1.3850     0.0000    -2.4730 c3         1 RCG      -0.131700
     25 C5           2.3820     0.0010    -3.6570 c3         1 RCG       0.007600
     26 C6           2.1100     1.2770    -4.4630 c3         1 RCG       0.239100
     27 C7           0.6990     1.7710    -4.0350 c3         1 RCG       0.201100
     28 C8           0.5380     1.2770    -2.5860 c3         1 RCG       0.166100
     29 C9           0.8970     3.2760    -4.0190 ca         1 RCG      -0.302300
     30 N1           1.4650     0.0000     0.0000 n          1 RCG      -0.156800
     31 O1           3.3510     0.0010    -1.1680 o          1 RCG      -0.635100
     32 O2           1.0170     2.2670    -1.6730 oh         1 RCG      -0.559800
     33 O3           2.9640     2.3370    -4.0080 os         1 RCG      -0.261900
     34 O5          -1.3350     4.0820    -4.0060 os         1 RCG      -0.326900
     35 O6          -0.3480     1.3310    -4.9010 oh         1 RCG      -0.551800
     36 O7           2.5180     0.4420   -10.0190 os         1 RCG      -0.310900
     37 H1          -0.3610    -0.5580    -0.8550 h1         1 RCG       0.008867
     38 H2          -0.3610     1.0200    -0.0550 h1         1 RCG       0.008867
     39 H3          -0.3610    -0.4620     0.9110 h1         1 RCG       0.008867
     40 H4          -0.2320     6.4620    -4.0040 ha         1 RCG       0.141000
     41 H5           3.7940     5.0170    -4.0120 ha         1 RCG       0.131000
     42 H6           0.6980     8.1090    -3.1170 h1         1 RCG      -0.003300
     43 H7           1.7910     9.1700    -4.0160 h1         1 RCG      -0.003300
     44 H8           0.7000     8.0830    -4.8850 h1         1 RCG      -0.003300
     45 H9          -3.2340     4.8850    -4.0000 h1         1 RCG      -0.001633
     46 H10         -2.0180     5.8050    -3.1030 h1         1 RCG      -0.001633
     47 H11         -2.0150     5.8250    -4.8720 h1         1 RCG      -0.001633
     48 H12          0.4910     2.2340    -6.4030 ha         1 RCG       0.130500
     49 H13          0.6680     1.8730    -8.8350 ha         1 RCG       0.116500
     50 H14          2.9330     0.7960     1.2610 h1         1 RCG       0.008867
     51 H15          1.5040     0.1570     2.0860 h1         1 RCG       0.008867
     52 H16          2.6980    -0.9520     1.3960 h1         1 RCG       0.008867
     53 H17          4.1480    -0.5410    -8.2150 ha         1 RCG       0.116500
     54 H18          3.9640    -0.1760    -5.7860 ha         1 RCG       0.130500
     55 H19          4.5390     0.0600   -10.1490 h1         1 RCG      -0.003300
     56 H20          3.5010    -1.3690   -10.0640 h1         1 RCG      -0.003300
     57 H21          3.5830    -0.4230   -11.5570 h1         1 RCG      -0.003300
     58 H22          4.1720    -1.9110    -4.3240 ha         1 RCG       0.121000
     59 H23          3.7990    -3.9080    -5.7220 ha         1 RCG       0.101000
     60 H24          1.5750    -4.3320    -6.6990 ha         1 RCG       0.100000
     61 H25         -0.2770    -2.7590    -6.2780 ha         1 RCG       0.101000
     62 H26          0.0970    -0.7620    -4.8800 ha         1 RCG       0.121000
     63 H27          0.7450    -0.8710    -2.5330 hc         1 RCG       0.058700
     64 H28          3.3980     0.0120    -3.2830 hc         1 RCG       0.094700
     65 H29         -0.5020     1.0500    -2.3850 h1         1 RCG       0.006700
     66 H30          0.2850     2.7110    -1.2780 ho         1 RCG       0.391000
     67 H31         -1.1830     1.5300    -4.5110 ho         1 RCG       0.395000
     68 O4           2.2940     7.1540    -4.0050 os         1 RCG      -0.304900
@<TRIPOS>BOND
     1     1    30 1   
     2     1    37 1   
     3     1    38 1   
     4     1    39 1   
     5     2     3 ar  
     6     2    29 ar  
     7     2    34 1   
     8     3     4 ar  
     9     3    40 1   
    10     4     5 ar  
    11     4    68 1   
    12     5     6 ar  
    13     5    41 1   
    14     6    29 ar  
    15     6    33 1   
    16     7    42 1   
    17     7    43 1   
    18     7    44 1   
    19     7    68 1   
    20     8    34 1   
    21     8    45 1   
    22     8    46 1   
    23     8    47 1   
    24     9    10 ar  
    25     9    15 ar  
    26     9    26 1   
    27    10    11 ar  
    28    10    48 1   
    29    11    13 ar  
    30    11    49 1   
    31    12    30 1   
    32    12    50 1   
    33    12    51 1   
    34    12    52 1   
    35    13    14 ar  
    36    13    36 1   
    37    14    15 ar  
    38    14    53 1   
    39    15    54 1   
    40    16    36 1   
    41    16    55 1   
    42    16    56 1   
    43    16    57 1   
    44    17    18 ar  
    45    17    22 ar  
    46    17    25 1   
    47    18    19 ar  
    48    18    58 1   
    49    19    20 ar  
    50    19    59 1   
    51    20    21 ar  
    52    20    60 1   
    53    21    22 ar  
    54    21    61 1   
    55    22    62 1   
    56    23    24 1   
    57    23    30 1   
    58    23    31 2   
    59    24    25 1   
    60    24    28 1   
    61    24    63 1   
    62    25    26 1   
    63    25    64 1   
    64    26    27 1   
    65    26    33 1   
    66    27    28 1   
    67    27    29 1   
    68    27    35 1   
    69    28    32 1   
    70    28    65 1   
    71    32    66 1   
    72    35    67 1   
@<TRIPOS>SUBSTRUCTURE
     1 RCG         1 TEMP              0 ****  ****    0 ROOT
