@<TRIPOS>MOLECULE
molecule
   68    72     1     0     0
SMALL
bcc


@<TRIPOS>ATOM
      1 C1           0.0000     0.0000     0.0000 c3         1 RCG       0.101800
      2 C10          0.0010     4.3280    -4.0120 ca         1 RCG       0.220100
      3 C11          0.4670     5.6350    -4.0070 ca         1 RCG      -0.349000
      4 C12          1.8330     5.8760    -4.0080 ca         1 RCG       0.215100
      5 C13          2.7290     4.8200    -4.0120 ca         1 RCG      -0.213000
      6 C14          2.2660     3.5070    -4.0140 ca         1 RCG       0.232100
      7 C15          1.3160     8.1970    -4.0020 c3         1 RCG       0.130700
      8 C16         -2.2030     5.2180    -3.9950 c3         1 RCG       0.130700
      9 C17          2.2170     1.0500    -5.9500 ca         1 RCG      -0.139300
     10 C18          1.2930     1.6250    -6.8030 ca         1 RCG      -0.053000
     11 C19          1.3920     1.4230    -8.1660 ca         1 RCG      -0.202000
     12 C2           2.1980     0.0000     1.2680 c3         1 RCG       0.101800
     13 C20          2.4190     0.6430    -8.6780 ca         1 RCG       0.150100
     14 C21          3.3450     0.0680    -7.8180 ca         1 RCG      -0.202000
     15 C22          3.2410     0.2730    -6.4570 ca         1 RCG      -0.053000
     16 C23          3.6010    -0.3720   -10.4750 c3         1 RCG       0.129700
     17 C24          2.1570    -1.2160    -4.5180 ca         1 RCG      -0.080300
     18 C25          3.1940    -2.0970    -4.7530 ca         1 RCG      -0.118500
     19 C26          2.9860    -3.2170    -5.5380 ca         1 RCG      -0.130000
     20 C27          1.7390    -3.4540    -6.0840 ca         1 RCG      -0.128000
     21 C28          0.7000    -2.5730    -5.8490 ca         1 RCG      -0.130000
     22 C29          0.9100    -1.4530    -5.0650 ca         1 RCG      -0.118500
     23 C3           2.1380     0.0010    -1.1680 c          1 RCG       0.689100
     24 C4           1.3850     0.0000    -2.4730 c3         1 RCG      -0.141700
     25 C5           2.3820     0.0010    -3.6570 c3         1 RCG      -0.004400
     26 C6           2.1100     1.2770    -4.4630 c3         1 RCG       0.228100
     27 C7           0.6990     1.7710    -4.0350 c3         1 RCG       0.171100
     28 C8           0.5380     1.2770    -2.5860 c3         1 RCG       0.130100
     29 C9           0.8970     3.2760    -4.0190 ca         1 RCG      -0.268300
     30 N1           1.4650     0.0000     0.0000 n          1 RCG      -0.491800
     31 O1           3.3510     0.0010    -1.1680 o          1 RCG      -0.598100
     32 O2           1.0170     2.2670    -1.6730 oh         1 RCG      -0.572800
     33 O3           2.9640     2.3370    -4.0080 os         1 RCG      -0.274900
     34 O5          -1.3350     4.0820    -4.0060 os         1 RCG      -0.343900
     35 O6          -0.3480     1.3310    -4.9010 oh         1 RCG      -0.571800
     36 O7           2.5180     0.4420   -10.0190 os         1 RCG      -0.331900
     37 H1          -0.3610    -0.5580    -0.8550 h1         1 RCG       0.038533
     38 H2          -0.3610     1.0200    -0.0550 h1         1 RCG       0.038533
     39 H3          -0.3610    -0.4620     0.9110 h1         1 RCG       0.038533
     40 H4          -0.2320     6.4620    -4.0040 ha         1 RCG       0.141000
     41 H5           3.7940     5.0170    -4.0120 ha         1 RCG       0.159000
     42 H6           0.6980     8.1090    -3.1170 h1         1 RCG       0.041700
     43 H7           1.7910     9.1700    -4.0160 h1         1 RCG       0.041700
     44 H8           0.7000     8.0830    -4.8850 h1         1 RCG       0.041700
     45 H9          -3.2340     4.8850    -4.0000 h1         1 RCG       0.042700
     46 H10         -2.0180     5.8050    -3.1030 h1         1 RCG       0.042700
     47 H11         -2.0150     5.8250    -4.8720 h1         1 RCG       0.042700
     48 H12          0.4910     2.2340    -6.4030 ha         1 RCG       0.151500
     49 H13          0.6680     1.8730    -8.8350 ha         1 RCG       0.137500
     50 H14          2.9330     0.7960     1.2610 h1         1 RCG       0.038533
     51 H15          1.5040     0.1570     2.0860 h1         1 RCG       0.038533
     52 H16          2.6980    -0.9520     1.3960 h1         1 RCG       0.038533
     53 H17          4.1480    -0.5410    -8.2150 ha         1 RCG       0.137500
     54 H18          3.9640    -0.1760    -5.7860 ha         1 RCG       0.151500
     55 H19          4.5390     0.0600   -10.1490 h1         1 RCG       0.040367
     56 H20          3.5010    -1.3690   -10.0640 h1         1 RCG       0.040367
     57 H21          3.5830    -0.4230   -11.5570 h1         1 RCG       0.040367
     58 H22          4.1720    -1.9110    -4.3240 ha         1 RCG       0.142000
     59 H23          3.7990    -3.9080    -5.7220 ha         1 RCG       0.128500
     60 H24          1.5750    -4.3320    -6.6990 ha         1 RCG       0.126000
     61 H25         -0.2770    -2.7590    -6.2780 ha         1 RCG       0.128500
     62 H26          0.0970    -0.7620    -4.8800 ha         1 RCG       0.142000
     63 H27          0.7450    -0.8710    -2.5330 hc         1 RCG       0.083700
     64 H28          3.3980     0.0120    -3.2830 hc         1 RCG       0.120700
     65 H29         -0.5020     1.0500    -2.3850 h1         1 RCG       0.037700
     66 H30          0.2850     2.7110    -1.2780 ho         1 RCG       0.404000
     67 H31         -1.1830     1.5300    -4.5110 ho         1 RCG       0.409000
     68 O4           2.2940     7.1540    -4.0050 os         1 RCG      -0.321900
@<TRIPOS>BOND
     1     8    34 1
     2    34     2 1
     3     2     3 ar
     4     2    29 ar
     5     3     4 ar
     6    35    27 1
     7    29    27 1
     8    29     6 ar
     9    68     4 1
    10    68     7 1
    11    32    28 1
    12     4     5 ar
    13    28    27 1
    14    28    24 1
    15    27    26 1
    16    12    30 1
    17     6     5 ar
    18     6    33 1
    19    10    11 ar
    20    10     9 ar
    21    30     1 1
    22    30    23 1
    23    24    23 1
    24    24    25 1
    25    11    13 ar
    26    26     9 1
    27    26    33 1
    28    26    25 1
    29    23    31 2
    30     9    15 ar
    31    16    36 1
    32    13    36 1
    33    13    14 ar
    34    25    17 1
    35    15    14 ar
    36    17    18 ar
    37    17    22 ar
    38    18    19 ar
    39    22    21 ar
    40    19    20 ar
    41    21    20 ar
    42     1    37 1
    43     1    38 1
    44     1    39 1
    45     3    40 1
    46     5    41 1
    47     7    42 1
    48     7    43 1
    49     7    44 1
    50     8    45 1
    51     8    46 1
    52     8    47 1
    53    10    48 1
    54    11    49 1
    55    12    50 1
    56    12    51 1
    57    12    52 1
    58    14    53 1
    59    15    54 1
    60    16    55 1
    61    16    56 1
    62    16    57 1
    63    18    58 1
    64    19    59 1
    65    20    60 1
    66    21    61 1
    67    22    62 1
    68    24    63 1
    69    25    64 1
    70    28    65 1
    71    32    66 1
    72    35    67 1
@<TRIPOS>SUBSTRUCTURE
     1 RCG         1 TEMP              0 ****  ****    0 ROOT
