@<TRIPOS>MOLECULE
molecule
   10     9     1     0     0
SMALL
bcc


@<TRIPOS>ATOM
      1 Cl1          0.0000     0.0000     0.0000 cl         1 RCI      -0.269400
      2 O2           2.2510     2.3080    -0.1660 o          1 RCI      -0.831800
      3 O3           2.8110     1.1310    -1.9490 o          1 RCI      -0.831800
      4 C4           1.8030     0.0000     0.0000 c3         1 RCI      -0.019300
      5 C5           2.3130     0.0000     1.4420 c3         1 RCI      -0.084100
      6 C6           2.3050     1.2310    -0.7110 c          1 RCI       0.889600
      7 H2           2.1640    -0.8840    -0.5110 h1         1 RCI       0.057700
      8 H3           3.3850     0.1550     1.4460 hc         1 RCI       0.030033
      9 H4           2.0840    -0.9520     1.9060 hc         1 RCI       0.030033
     10 H5           1.8310     0.7970     1.9950 hc         1 RCI       0.030033
@<TRIPOS>BOND
     1     1     4 1
     2     5     4 1
     3     4     6 1
     4     6     2 1
     5     6     3 1
     6     4     7 1
     7     5     8 1
     8     5     9 1
     9     5    10 1
@<TRIPOS>SUBSTRUCTURE
     1 RCI         1 TEMP              0 ****  ****    0 ROOT
