@<TRIPOS>MOLECULE
RCJ
   41    40     1     0     0
SMALL
bcc


@<TRIPOS>ATOM
      1 O1A          0.0000     0.0000     0.0000 o          1 RCJ      -0.890800
      2 C1           1.2080     0.0000     0.0000 c          1 RCJ       0.954600
      3 O1B          1.8790     0.0000     1.1620 o          1 RCJ      -0.890800
      4 C2           1.9600    -0.0070    -1.3060 c3         1 RCJ       0.077100
      5 O2           1.0360    -0.1300    -2.3880 oh         1 RCJ      -0.602800
      6 C3           2.7440     1.3000    -1.4490 c3         1 RCJ      -0.036400
      7 C4           3.6050     1.2420    -2.7120 c3         1 RCJ       0.161100
      8 O4           4.5950     0.2220    -2.5680 oh         1 RCJ      -0.604800
      9 C5           4.2920     2.5930    -2.9240 c3         1 RCJ      -0.029300
     10 N5           5.1110     2.9140    -1.7520 ns         1 RCJ      -0.169900
     11 C10          4.7970     3.9720    -0.9800 c          1 RCJ       0.570100
     12 C11          5.5630     4.2320     0.2910 c3         1 RCJ      -0.069100
     13 O10          3.8970     4.7170    -1.3080 o          1 RCJ      -0.655100
     14 C6           5.1840     2.5220    -4.1650 c3         1 RCJ       0.174100
     15 O6           4.3850     2.2100    -5.3080 oh         1 RCJ      -0.568800
     16 C7           5.8700     3.8730    -4.3760 c3         1 RCJ       0.171100
     17 O7           4.8830     4.9040    -4.4410 oh         1 RCJ      -0.554800
     18 C8           6.6630     3.8440    -5.6840 c3         1 RCJ       0.149100
     19 O8           7.6500     2.8120    -5.6190 oh         1 RCJ      -0.593800
     20 C9           7.3500     5.1950    -5.8960 c3         1 RCJ       0.183400
     21 O9           7.9940     5.2060    -7.1710 oh         1 RCJ      -0.600800
     22 H2           2.6480    -0.8440    -1.3210 h1         1 RCJ      -0.008300
     23 H3           0.7450    -1.0240    -2.4530 ho         1 RCJ       0.378000
     24 H4           3.3820     1.4350    -0.5840 hc         1 RCJ       0.043700
     25 H5           2.0520     2.1300    -1.5220 hc         1 RCJ       0.043700
     26 H6           2.9780     1.0180    -3.5670 h1         1 RCJ       0.028700
     27 H7           4.3940    -0.4950    -3.1460 ho         1 RCJ       0.384000
     28 H8           3.5420     3.3620    -3.0610 h1         1 RCJ       0.104700
     29 H9           5.8930     2.3360    -1.5150 hn         1 RCJ       0.176500
     30 H10          5.0130     4.9320     0.9080 hc         1 RCJ       0.019700
     31 H11          6.5330     4.6490     0.0490 hc         1 RCJ       0.019700
     32 H12          5.6940     3.3010     0.8300 hc         1 RCJ       0.019700
     33 H13          5.9340     1.7540    -4.0270 h1         1 RCJ       0.026700
     34 H14          4.6380     1.3670    -5.6470 ho         1 RCJ       0.381000
     35 H15          6.5430     4.0700    -3.5500 h1         1 RCJ       0.010700
     36 H16          5.2440     5.7070    -4.1020 ho         1 RCJ       0.384000
     37 H17          5.9900     3.6480    -6.5100 h1         1 RCJ       0.037700
     38 H18          7.9650     2.6230    -6.4880 ho         1 RCJ       0.399000
     39 H19          8.0870     5.3510    -5.1180 h1         1 RCJ      -0.004800
     40 H20          6.6110     5.9850    -5.8580 h1         1 RCJ      -0.004800
     41 H21          8.4170     6.0380    -7.3030 ho         1 RCJ       0.389000
@<TRIPOS>BOND
     1     1     2 1   
     2     2     3 1   
     3     2     4 1   
     4     4     5 1   
     5     4     6 1   
     6     4    22 1   
     7     5    23 1   
     8     6     7 1   
     9     6    24 1   
    10     6    25 1   
    11     7     8 1   
    12     7     9 1   
    13     7    26 1   
    14     8    27 1   
    15     9    10 1   
    16     9    14 1   
    17     9    28 1   
    18    10    11 1   
    19    10    29 1   
    20    11    12 1   
    21    11    13 2   
    22    12    30 1   
    23    12    31 1   
    24    12    32 1   
    25    14    15 1   
    26    14    16 1   
    27    14    33 1   
    28    15    34 1   
    29    16    17 1   
    30    16    18 1   
    31    16    35 1   
    32    17    36 1   
    33    18    19 1   
    34    18    20 1   
    35    18    37 1   
    36    19    38 1   
    37    20    21 1   
    38    20    39 1   
    39    20    40 1   
    40    21    41 1   
@<TRIPOS>SUBSTRUCTURE
     1 RCJ         1 TEMP              0 ****  ****    0 ROOT
