@<TRIPOS>MOLECULE
molecule
   54    53     1     0     0
SMALL
bcc


@<TRIPOS>ATOM
      1 O1           0.0000     0.0000     0.0000 o          1 RCL      -0.858300
      2 C1           1.3420     0.0000     0.0000 c          1 RCL       0.891600
      3 O2           1.9470     0.0000     1.0460 o          1 RCL      -0.858300
      4 C2           2.0970     0.0010    -1.3050 c3         1 RCL      -0.183400
      5 C3           3.6000     0.0010    -1.0250 c3         1 RCL      -0.063400
      6 C4           4.3660     0.0020    -2.3500 c3         1 RCL      -0.088400
      7 C5           5.8700     0.0020    -2.0690 c3         1 RCL      -0.081400
      8 C6           6.6350     0.0040    -3.3940 c3         1 RCL      -0.084400
      9 C7           8.1390     0.0040    -3.1150 c3         1 RCL      -0.077400
     10 C8           8.9050     0.0050    -4.4390 c3         1 RCL      -0.052200
     11 C9          10.3850     0.0050    -4.1640 c2         1 RCL      -0.149200
     12 C10         11.1330    -0.9760    -4.6020 c2         1 RCL      -0.194200
     13 C11         12.6150    -0.9760    -4.3270 c3         1 RCL      -0.052200
     14 C12         12.9850    -2.2250    -3.5240 c3         1 RCL       0.151100
     15 O12         12.2700    -2.2260    -2.2880 oh         1 RCL      -0.598800
     16 C13         14.4890    -2.2250    -3.2440 c3         1 RCL      -0.096400
     17 C14         14.8590    -3.4740    -2.4430 c3         1 RCL      -0.082400
     18 C15         16.3630    -3.4740    -2.1630 c3         1 RCL      -0.081400
     19 C16         16.7340    -4.7220    -1.3610 c3         1 RCL      -0.081400
     20 C17         18.2370    -4.7220    -1.0820 c3         1 RCL      -0.084400
     21 C18         18.6080    -5.9710    -0.2790 c3         1 RCL      -0.092100
     22 H21          1.8350    -0.8830    -1.8730 hc         1 RCL       0.026700
     23 H22          1.8350     0.8860    -1.8720 hc         1 RCL       0.026700
     24 H31          3.8610     0.8860    -0.4560 hc         1 RCL       0.044700
     25 H32          3.8620    -0.8830    -0.4570 hc         1 RCL       0.044700
     26 H41          4.1050     0.8870    -2.9170 hc         1 RCL       0.028700
     27 H42          4.1050    -0.8820    -2.9180 hc         1 RCL       0.028700
     28 H51          6.1310    -0.8840    -1.5030 hc         1 RCL       0.039700
     29 H52          6.1310     0.8860    -1.4990 hc         1 RCL       0.039700
     30 H61          6.3730    -0.8790    -3.9640 hc         1 RCL       0.035700
     31 H62          6.3730     0.8900    -3.9600 hc         1 RCL       0.035700
     32 H71          8.4010     0.8870    -2.5450 hc         1 RCL       0.043200
     33 H72          8.4010    -0.8820    -2.5480 hc         1 RCL       0.043200
     34 H81          8.6430    -0.8780    -5.0080 hc         1 RCL       0.043200
     35 H82          8.6430     0.8910    -5.0060 hc         1 RCL       0.043200
     36 H9          10.8310     0.8180    -3.6030 ha         1 RCL       0.125000
     37 H10         10.6870    -1.7880    -5.1620 ha         1 RCL       0.119000
     38 H111        12.8780    -0.0920    -3.7590 hc         1 RCL       0.050700
     39 H112        13.1570    -0.9770    -5.2650 hc         1 RCL       0.050700
     40 H12         12.7230    -3.1100    -4.0920 h1         1 RCL       0.028700
     41 HO12        11.7940    -3.0360    -2.2000 ho         1 RCL       0.402000
     42 H131        15.0310    -2.2250    -4.1830 hc         1 RCL       0.048200
     43 H132        14.7510    -1.3410    -2.6760 hc         1 RCL       0.048200
     44 H141        14.3180    -3.4740    -1.5050 hc         1 RCL       0.044200
     45 H142        14.5980    -4.3590    -3.0110 hc         1 RCL       0.044200
     46 H151        16.9050    -3.4740    -3.1010 hc         1 RCL       0.039700
     47 H152        16.6250    -2.5890    -1.5960 hc         1 RCL       0.039700
     48 H161        16.1920    -4.7210    -0.4230 hc         1 RCL       0.041700
     49 H162        16.4720    -5.6060    -1.9290 hc         1 RCL       0.041700
     50 H171        18.4990    -3.8370    -0.5150 hc         1 RCL       0.039200
     51 H172        18.7780    -4.7230    -2.0200 hc         1 RCL       0.039200
     52 H181        19.6730    -5.9700    -0.0820 hc         1 RCL       0.031367
     53 H182        18.0670    -5.9700     0.6600 hc         1 RCL       0.031367
     54 H183        18.3450    -6.8560    -0.8460 hc         1 RCL       0.031367
@<TRIPOS>BOND
     1     1     2 1
     2     2     3 1
     3     2     4 1
     4     4     5 1
     5     4    22 1
     6     4    23 1
     7     5     6 1
     8     5    24 1
     9     5    25 1
    10     6     7 1
    11     6    26 1
    12     6    27 1
    13     7     8 1
    14     7    28 1
    15     7    29 1
    16     8     9 1
    17     8    30 1
    18     8    31 1
    19     9    10 1
    20     9    32 1
    21     9    33 1
    22    10    11 1
    23    10    34 1
    24    10    35 1
    25    11    12 2
    26    11    36 1
    27    12    13 1
    28    12    37 1
    29    13    14 1
    30    13    38 1
    31    13    39 1
    32    14    15 1
    33    14    16 1
    34    14    40 1
    35    15    41 1
    36    16    17 1
    37    16    42 1
    38    16    43 1
    39    17    18 1
    40    17    44 1
    41    17    45 1
    42    18    19 1
    43    18    46 1
    44    18    47 1
    45    19    20 1
    46    19    48 1
    47    19    49 1
    48    20    21 1
    49    20    50 1
    50    20    51 1
    51    21    52 1
    52    21    53 1
    53    21    54 1
@<TRIPOS>SUBSTRUCTURE
     1 RCL         1 TEMP              0 ****  ****    0 ROOT
