@<TRIPOS>MOLECULE
RCL
   54    53     1     0     0
SMALL
bcc


@<TRIPOS>ATOM
      1 O1         -0.3570    1.6330   -0.9770 o         1 RCL     -0.852800
      2 C1          0.6110    0.8540   -0.7390 c         1 RCL      0.907600
      3 O2          0.8250    0.3220    0.3890 o         1 RCL     -0.852800
      4 C2          1.5630    0.5220   -1.9010 c3        1 RCL     -0.194400
      5 C3          3.0070    0.6130   -1.4700 c3        1 RCL     -0.065400
      6 C4          3.9490    0.1160   -2.5460 c3        1 RCL     -0.078400
      7 C5          5.3960    0.2330   -2.1140 c3        1 RCL     -0.079400
      8 C6          6.3370   -0.2610   -3.1920 c3        1 RCL     -0.079400
      9 C7          7.7830   -0.1330   -2.7630 c3        1 RCL     -0.076400
     10 C8          8.7200   -0.6110   -3.8550 c3        1 RCL     -0.055200
     11 C9         10.1430   -0.4610   -3.4670 c2        1 RCL     -0.142200
     12 C10        11.0860   -1.3630   -3.7550 c2        1 RCL     -0.209200
     13 C11        12.5190   -1.1870   -3.4180 c3        1 RCL     -0.083200
     14 C12        13.1320   -2.4700   -2.8550 c3        1 RCL      0.145100
     15 O12        12.6240   -2.7620   -1.5590 oh        1 RCL     -0.604800
     16 C13        14.6450   -2.3280   -2.7150 c3        1 RCL     -0.074400
     17 C14        15.2920   -3.6520   -2.3710 c3        1 RCL     -0.078400
     18 C15        16.7860   -3.5000   -2.1820 c3        1 RCL     -0.078400
     19 C16        17.4340   -4.8260   -1.8480 c3        1 RCL     -0.079400
     20 C17        18.9280   -4.6770   -1.6540 c3        1 RCL     -0.080400
     21 C18        19.5780   -5.9950   -1.3220 c3        1 RCL     -0.092100
     22 H21         1.3660    1.2190   -2.7530 hc        1 RCL      0.018700
     23 H22         1.3320   -0.5180   -2.2460 hc        1 RCL      0.018700
     24 H31         3.2540    1.6770   -1.2180 hc        1 RCL      0.044200
     25 H32         3.1400    0.0120   -0.5310 hc        1 RCL      0.044200
     26 H41         3.7910    0.7060   -3.4870 hc        1 RCL      0.026700
     27 H42         3.7150   -0.9550   -2.7850 hc        1 RCL      0.026700
     28 H51         5.6290    1.3040   -1.8730 hc        1 RCL      0.037700
     29 H52         5.5540   -0.3590   -1.1740 hc        1 RCL      0.037700
     30 H61         6.1700    0.3260   -4.1330 hc        1 RCL      0.034700
     31 H62         6.1080   -1.3330   -3.4270 hc        1 RCL      0.034700
     32 H71         8.0080    0.9380   -2.5150 hc        1 RCL      0.040700
     33 H72         7.9540   -0.7320   -1.8310 hc        1 RCL      0.040700
     34 H81         8.5400   -0.0080   -4.7880 hc        1 RCL      0.047700
     35 H82         8.4870   -1.6800   -4.1070 hc        1 RCL      0.047700
     36 H9         10.3880    0.4680   -2.9250 ha        1 RCL      0.122000
     37 H10        10.8390   -2.2950   -4.2900 ha        1 RCL      0.120000
     38 H111       13.0770   -0.9010   -4.3500 hc        1 RCL      0.055200
     39 H112       12.6580   -0.3610   -2.6720 hc        1 RCL      0.055200
     40 H12        12.8910   -3.3340   -3.5380 h1        1 RCL      0.031700
     41 HO12       11.6640   -2.6700   -1.6090 ho        1 RCL      0.409000
     42 H131       14.8680   -1.5780   -1.9120 hc        1 RCL      0.046700
     43 H132       15.0600   -1.9370   -3.6790 hc        1 RCL      0.046700
     44 H141       15.0890   -4.3940   -3.1870 hc        1 RCL      0.048200
     45 H142       14.8250   -4.0530   -1.4320 hc        1 RCL      0.048200
     46 H151       16.9870   -2.7660   -1.3570 hc        1 RCL      0.037200
     47 H152       17.2440   -3.0810   -3.1160 hc        1 RCL      0.037200
     48 H161       17.2340   -5.5600   -2.6730 hc        1 RCL      0.040200
     49 H162       16.9740   -5.2450   -0.9150 hc        1 RCL      0.040200
     50 H171       19.3860   -4.2550   -2.5880 hc        1 RCL      0.037200
     51 H172       19.1250   -3.9410   -0.8300 hc        1 RCL      0.037200
     52 H181       20.6770   -5.8620   -1.1830 hc        1 RCL      0.031033
     53 H182       19.1510   -6.4190   -0.3810 hc        1 RCL      0.031033
     54 H183       19.4130   -6.7340   -2.1440 hc        1 RCL      0.031033
@<TRIPOS>BOND
     1    1    2 1   
     2    2    3 1   
     3    2    4 1   
     4    4    5 1   
     5    4   22 1   
     6    4   23 1   
     7    5    6 1   
     8    5   24 1   
     9    5   25 1   
    10    6    7 1   
    11    6   26 1   
    12    6   27 1   
    13    7    8 1   
    14    7   28 1   
    15    7   29 1   
    16    8    9 1   
    17    8   30 1   
    18    8   31 1   
    19    9   10 1   
    20    9   32 1   
    21    9   33 1   
    22   10   11 1   
    23   10   34 1   
    24   10   35 1   
    25   11   12 2   
    26   11   36 1   
    27   12   13 1   
    28   12   37 1   
    29   13   14 1   
    30   13   38 1   
    31   13   39 1   
    32   14   15 1   
    33   14   16 1   
    34   14   40 1   
    35   15   41 1   
    36   16   17 1   
    37   16   42 1   
    38   16   43 1   
    39   17   18 1   
    40   17   44 1   
    41   17   45 1   
    42   18   19 1   
    43   18   46 1   
    44   18   47 1   
    45   19   20 1   
    46   19   48 1   
    47   19   49 1   
    48   20   21 1   
    49   20   50 1   
    50   20   51 1   
    51   21   52 1   
    52   21   53 1   
    53   21   54 1   
@<TRIPOS>SUBSTRUCTURE
     1 RCL         1 TEMP              0 ****  ****    0 ROOT
