@<TRIPOS>MOLECULE
RCM
   31    33     1     0     0
SMALL
bcc


@<TRIPOS>ATOM
      1 O2           0.0000     0.0000     0.0000 o          1 RCM      -0.699500
      2 C14          1.2160     0.0000     0.0000 c          1 RCM       0.613500
      3 N3           1.9590     0.0000     1.1110 n          1 RCM      -0.132400
      4 C17          1.4090    -0.0010     2.4690 c3         1 RCM       0.094300
      5 C12          3.2770     0.0020     0.8280 c          1 RCM       0.625500
      6 O1           4.1960     0.0010     1.6180 o          1 RCM      -0.616500
      7 N2           1.9630    -0.0050    -1.1190 ns         1 RCM      -0.207900
      8 C11          3.3710     0.0020    -0.6850 c3         1 RCM      -0.092300
      9 C10          4.0870    -1.2550    -1.1800 c3         1 RCM       0.075800
     10 C7           4.2750    -1.1710    -2.6730 cc         1 RCM      -0.170400
     11 C2           5.3740    -0.5040    -3.3760 ca         1 RCM      -0.087800
     12 C8           3.4710    -1.6990    -3.6100 cd         1 RCM      -0.260100
     13 N1           3.9660    -1.4230    -4.8560 na         1 RCM       0.370600
     14 C3           5.1250    -0.6880    -4.7480 ca         1 RCM      -0.224200
     15 C4           6.0120    -0.1560    -5.6790 ca         1 RCM      -0.031600
     16 Cl1          5.7320    -0.3820    -7.3780 cl         1 RCM      -0.038400
     17 C5           7.1140     0.5510    -5.2490 ca         1 RCM      -0.077000
     18 C6           7.3490     0.7400    -3.8930 ca         1 RCM      -0.120000
     19 C1           6.5020     0.2070    -2.9620 ca         1 RCM      -0.043000
     20 H1           0.7700    -0.8660     2.5990 h1         1 RCM       0.022700
     21 H2           2.2200    -0.0400     3.1870 h1         1 RCM       0.022700
     22 H3           0.8320     0.9020     2.6250 h1         1 RCM       0.022700
     23 H4           1.6280    -0.0060    -2.0620 hn         1 RCM       0.222500
     24 H5           3.8710     0.8970    -1.0340 h1         1 RCM       0.065700
     25 H6           5.0540    -1.3340    -0.6980 hc         1 RCM       0.033200
     26 H7           3.4920    -2.1280    -0.9400 hc         1 RCM       0.033200
     27 H8           2.5670    -2.2600    -3.4100 h4         1 RCM       0.145000
     28 H9           3.5450    -1.7100    -5.7180 hn         1 RCM       0.122700
     29 H10          7.7940     0.9800    -5.9750 ha         1 RCM       0.114000
     30 H11          8.2190     1.2980    -3.5710 ha         1 RCM       0.109000
     31 H12          6.6910     0.3580    -1.9060 ha         1 RCM       0.108000
@<TRIPOS>BOND
     1     1     2 2   
     2     2     3 1   
     3     2     7 1   
     4     3     4 1   
     5     3     5 1   
     6     4    20 1   
     7     4    21 1   
     8     4    22 1   
     9     5     6 2   
    10     5     8 1   
    11     7     8 1   
    12     7    23 1   
    13     8     9 1   
    14     8    24 1   
    15     9    10 1   
    16     9    25 1   
    17     9    26 1   
    18    10    11 1   
    19    10    12 2   
    20    11    14 ar  
    21    11    19 ar  
    22    12    13 1   
    23    12    27 1   
    24    13    14 1   
    25    13    28 1   
    26    14    15 ar  
    27    15    16 1   
    28    15    17 ar  
    29    17    18 ar  
    30    17    29 1   
    31    18    19 ar  
    32    18    30 1   
    33    19    31 1   
@<TRIPOS>SUBSTRUCTURE
     1 RCM         1 TEMP              0 ****  ****    0 ROOT
