@<TRIPOS>MOLECULE
RCO
   14    14     1     0     0
SMALL
bcc


@<TRIPOS>ATOM
      1 C1         -0.0510    0.1760    0.0810 ca        1 RCO      0.162100
      2 C2          1.3450    0.2940    0.0700 ca        1 RCO     -0.301000
      3 C3          2.0300    0.1840    1.2870 ca        1 RCO      0.162100
      4 C4          1.3450   -0.0390    2.4930 ca        1 RCO     -0.192000
      5 C5         -0.0430   -0.1520    2.4680 ca        1 RCO     -0.065000
      6 C6         -0.7550   -0.0470    1.2760 ca        1 RCO     -0.192000
      7 O1         -0.8050    0.2710   -1.0650 oh        1 RCO     -0.495100
      8 O3          3.3990    0.2870    1.3710 oh        1 RCO     -0.495100
      9 H2          1.8880    0.4690   -0.8680 ha        1 RCO      0.135000
     10 H4          1.9090   -0.1210    3.4310 ha        1 RCO      0.152000
     11 H5         -0.5880   -0.3270    3.4090 ha        1 RCO      0.138000
     12 H6         -1.8490   -0.1360    1.2520 ha        1 RCO      0.152000
     13 H1         -0.2030    0.4230   -1.8090 ho        1 RCO      0.419000
     14 H3          3.7440    0.4390    0.4790 ho        1 RCO      0.419000
@<TRIPOS>BOND
     1    1    2 ar  
     2    1    6 ar  
     3    1    7 1   
     4    2    3 ar  
     5    2    9 1   
     6    3    4 ar  
     7    3    8 1   
     8    4    5 ar  
     9    4   10 1   
    10    5    6 ar  
    11    5   11 1   
    12    6   12 1   
    13    7   13 1   
    14    8   14 1   
@<TRIPOS>SUBSTRUCTURE
     1 RCO         1 TEMP              0 ****  ****    0 ROOT
