@<TRIPOS>MOLECULE
molecule
   14    14     1     0     0
SMALL
bcc


@<TRIPOS>ATOM
      1 C1           0.0000     0.0000     0.0000 ca         1 RCO       0.118100
      2 C2           1.3850     0.0000     0.0000 ca         1 RCO      -0.182000
      3 C3           2.0760     0.0000     1.2010 ca         1 RCO       0.118100
      4 C4           1.3790    -0.0110     2.4010 ca         1 RCO      -0.160000
      5 C5          -0.0020    -0.0160     2.3970 ca         1 RCO      -0.103000
      6 C6          -0.6930    -0.0110     1.2010 ca         1 RCO      -0.160000
      7 O1          -0.6800     0.0050    -1.1770 oh         1 RCO      -0.519600
      8 O3           3.4350     0.0060     1.2050 oh         1 RCO      -0.519600
      9 H2           1.9280     0.0090    -0.9380 ha         1 RCO       0.150000
     10 H4           1.9190    -0.0130     3.3400 ha         1 RCO       0.142000
     11 H5          -0.5450    -0.0250     3.3350 ha         1 RCO       0.136000
     12 H6          -1.7760    -0.0130     1.2020 ha         1 RCO       0.142000
     13 H1          -0.8020     0.8940    -1.4660 ho         1 RCO       0.419000
     14 H3           3.7450     0.8960     1.1660 ho         1 RCO       0.419000
@<TRIPOS>BOND
     1     1     2 ar
     2     1     6 ar
     3     1     7 1
     4     2     3 ar
     5     2     9 1
     6     3     4 ar
     7     3     8 1
     8     4     5 ar
     9     4    10 1
    10     5     6 ar
    11     5    11 1
    12     6    12 1
    13     7    13 1
    14     8    14 1
@<TRIPOS>SUBSTRUCTURE
     1 RCO         1 TEMP              0 ****  ****    0 ROOT
