@<TRIPOS>MOLECULE
molecule
   71    76     1     0     0
SMALL
bcc


@<TRIPOS>ATOM
      1 C29          0.0000     0.0000     0.0000 c3         1 RCP       0.065500
      2 C30          1.5230     0.0000     0.0000 c3         1 RCP       0.116900
      3 O28          2.0220     0.0000     1.3400 os         1 RCP      -0.408600
      4 C28          1.6060    -1.1730     2.0430 c3         1 RCP       0.116900
      5 C27          0.0880    -1.2200     2.1350 c3         1 RCP       0.065500
      6 N26         -0.5070    -1.1180     0.8030 n          1 RCP      -0.505800
      7 C26         -1.5490    -1.9680     0.4370 c          1 RCP       0.680100
      8 O26         -1.9560    -2.9020     1.1320 o          1 RCP      -0.595100
      9 C25         -2.1900    -1.7070    -0.8910 c3         1 RCP      -0.146700
     10 C24         -1.4510    -2.4800    -1.9880 c3         1 RCP       0.171800
     11 C23         -3.6630    -2.1070    -0.8290 c3         1 RCP      -0.066400
     12 C22         -4.3030    -1.9940    -2.2080 c3         1 RCP      -0.079400
     13 C21         -3.4960    -2.7540    -3.2620 c3         1 RCP       0.159800
     14 N20         -2.1010    -2.2940    -3.2930 n3         1 RCP      -0.723600
     15 C20         -1.3550    -2.9930    -4.3410 c3         1 RCP       0.176500
     16 C19          0.1010    -2.5170    -4.3770 c3         1 RCP      -0.095900
     17 C18          0.8720    -3.1740    -5.5200 c3         1 RCP       0.106500
     18 C17         -2.0260    -2.8050    -5.7070 c3         1 RCP      -0.095900
     19 C16         -1.2090    -3.4650    -6.8130 c3         1 RCP       0.106500
     20 N15          0.1770    -2.9750    -6.7940 n          1 RCP      -0.507800
     21 C15          0.8670    -2.4250    -7.8890 c          1 RCP       0.692700
     22 O15          2.0530    -2.0970    -7.8280 o          1 RCP      -0.582100
     23 C14          0.1220    -2.2490    -9.1310 ca         1 RCP      -0.126600
     24 C1          -0.5580    -1.0420    -9.3590 ca         1 RCP       0.002000
     25 C2          -0.5370     0.0000    -8.4180 ca         1 RCP      -0.124000
     26 C3          -1.2180     1.1930    -8.6590 ca         1 RCP      -0.115500
     27 C4          -1.9280     1.3620    -9.8440 ca         1 RCP      -0.126500
     28 C5          -1.9590     0.3370   -10.7900 ca         1 RCP      -0.116500
     29 C6          -1.2790    -0.8710   -10.5620 ca         1 RCP      -0.039000
     30 C7          -1.3000    -1.9130   -11.5040 ca         1 RCP      -0.086000
     31 C8          -0.6200    -3.1200   -11.2760 ca         1 RCP      -0.039000
     32 C13          0.1010    -3.2910   -10.0730 ca         1 RCP       0.002000
     33 C12          0.7810    -4.4990    -9.8450 ca         1 RCP      -0.124000
     34 C11          0.7500    -5.5240   -10.7920 ca         1 RCP      -0.115500
     35 C10          0.0400    -5.3550   -11.9760 ca         1 RCP      -0.126500
     36 C9          -0.6410    -4.1620   -12.2180 ca         1 RCP      -0.116500
     37 H291        -0.3570     0.9320     0.4200 h1         1 RCP       0.061200
     38 H292        -0.3570    -0.1000    -1.0180 h1         1 RCP       0.061200
     39 H301         1.8790    -0.8850    -0.5130 h1         1 RCP       0.054950
     40 H302         1.8790     0.8850    -0.5130 h1         1 RCP       0.054950
     41 H281         1.9590    -2.0500     1.5140 h1         1 RCP       0.054950
     42 H282         2.0240    -1.1590     3.0420 h1         1 RCP       0.054950
     43 H271        -0.2580    -0.3940     2.7440 h1         1 RCP       0.061200
     44 H272        -0.2130    -2.1560     2.5890 h1         1 RCP       0.061200
     45 H25         -2.1280    -0.6480    -1.1110 hc         1 RCP       0.069700
     46 H241        -1.4510    -3.5340    -1.7390 h1         1 RCP       0.042700
     47 H242        -0.4300    -2.1230    -2.0460 h1         1 RCP       0.042700
     48 H231        -3.7400    -3.1300    -0.4830 hc         1 RCP       0.058200
     49 H232        -4.1820    -1.4510    -0.1400 hc         1 RCP       0.058200
     50 H221        -5.3050    -2.4050    -2.1670 hc         1 RCP       0.048700
     51 H222        -4.3550    -0.9490    -2.4890 hc         1 RCP       0.048700
     52 H211        -3.5150    -3.8110    -3.0270 h1         1 RCP       0.036700
     53 H212        -3.9440    -2.5920    -4.2350 h1         1 RCP       0.036700
     54 H20         -1.3550    -4.0510    -4.1110 h1         1 RCP       0.019700
     55 H191         0.5780    -2.7680    -3.4380 hc         1 RCP       0.056450
     56 H192         0.1170    -1.4420    -4.5120 hc         1 RCP       0.056450
     57 H171        -2.1140    -1.7450    -5.9160 hc         1 RCP       0.056450
     58 H172        -3.0130    -3.2510    -5.6810 hc         1 RCP       0.056450
     59 H181         1.8600    -2.7330    -5.5820 h1         1 RCP       0.054950
     60 H182         0.9610    -4.2360    -5.3250 h1         1 RCP       0.054950
     61 H161        -1.6550    -3.2330    -7.7730 h1         1 RCP       0.054950
     62 H162        -1.2090    -4.5380    -6.6640 h1         1 RCP       0.054950
     63 H2           0.0140    -0.1240    -7.4930 ha         1 RCP       0.143000
     64 H3          -1.1940     1.9890    -7.9240 ha         1 RCP       0.135000
     65 H4          -2.4570     2.2880   -10.0320 ha         1 RCP       0.134000
     66 H5          -2.5130     0.4740   -11.7100 ha         1 RCP       0.133000
     67 H7          -1.8530    -1.7820   -12.4270 ha         1 RCP       0.135000
     68 H9          -1.1910    -4.0380   -13.1420 ha         1 RCP       0.133000
     69 H12          1.3350    -4.6360    -8.9250 ha         1 RCP       0.143000
     70 H11          1.2780    -6.4510   -10.6050 ha         1 RCP       0.135000
     71 H10          0.0160    -6.1510   -12.7110 ha         1 RCP       0.134000
@<TRIPOS>BOND
     1     1     2 1
     2     1     6 1
     3     1    37 1
     4     1    38 1
     5     2     3 1
     6     2    39 1
     7     2    40 1
     8     3     4 1
     9     4     5 1
    10     4    41 1
    11     4    42 1
    12     5     6 1
    13     5    43 1
    14     5    44 1
    15     6     7 1
    16     7     8 2
    17     7     9 1
    18     9    10 1
    19     9    11 1
    20     9    45 1
    21    10    14 1
    22    10    46 1
    23    10    47 1
    24    11    12 1
    25    11    48 1
    26    11    49 1
    27    12    13 1
    28    12    50 1
    29    12    51 1
    30    13    14 1
    31    13    52 1
    32    13    53 1
    33    14    15 1
    34    15    16 1
    35    15    18 1
    36    15    54 1
    37    16    17 1
    38    16    55 1
    39    16    56 1
    40    17    20 1
    41    17    59 1
    42    17    60 1
    43    18    19 1
    44    18    57 1
    45    18    58 1
    46    19    20 1
    47    19    61 1
    48    19    62 1
    49    20    21 1
    50    21    22 2
    51    21    23 1
    52    23    24 ar
    53    23    32 ar
    54    24    25 ar
    55    24    29 ar
    56    25    26 ar
    57    25    63 1
    58    26    27 ar
    59    26    64 1
    60    27    28 ar
    61    27    65 1
    62    28    29 ar
    63    28    66 1
    64    29    30 ar
    65    30    31 ar
    66    30    67 1
    67    31    32 ar
    68    31    36 ar
    69    32    33 ar
    70    33    34 ar
    71    33    69 1
    72    34    35 ar
    73    34    70 1
    74    35    36 ar
    75    35    71 1
    76    36    68 1
@<TRIPOS>SUBSTRUCTURE
     1 RCP         1 TEMP              0 ****  ****    0 ROOT
