@<TRIPOS>MOLECULE
molecule
   36    38     1     0     0
SMALL
bcc


@<TRIPOS>ATOM
      1 C1           0.0000     0.0000     0.0000 ce         1 RCX      -0.131400
      2 C2           1.3620     0.0000     0.0000 cf         1 RCX      -0.075400
      3 C3           1.7920     0.0000     1.4480 c3         1 RCX       0.161600
      4 C4          -0.4750     0.0060     1.3870 c          1 RCX       0.724800
      5 O5           0.5690     0.0010     2.2350 os         1 RCX      -0.377900
      6 O6          -1.6450     0.0090     1.7220 o          1 RCX      -0.551500
      7 C7          -0.8600    -0.0000    -1.2050 ca         1 RCX      -0.041800
      8 C8          -1.6820    -1.0930    -1.4780 ca         1 RCX      -0.101500
      9 C9          -2.4830    -1.0870    -2.6030 ca         1 RCX      -0.129500
     10 C10         -2.4690    -0.0010    -3.4590 ca         1 RCX      -0.118000
     11 C11         -1.6560     1.0870    -3.1940 ca         1 RCX      -0.129500
     12 C12         -0.8570     1.0960    -2.0680 ca         1 RCX      -0.101500
     13 C13          2.2400    -0.0010    -1.1770 ca         1 RCX       0.005200
     14 C14          2.2470    -1.0970    -2.0490 ca         1 RCX      -0.129000
     15 C15          3.0740    -1.0900    -3.1510 ca         1 RCX      -0.029000
     16 C16          3.8970    -0.0050    -3.3980 ca         1 RCX      -0.291500
     17 C17          3.8970     1.0830    -2.5410 ca         1 RCX      -0.029000
     18 C18          3.0710     1.0950    -1.4370 ca         1 RCX      -0.129000
     19 S19          4.9500    -0.0060    -4.8110 sy         1 RCX       1.190300
     20 O20          6.0220     0.8550    -4.4500 o          1 RCX      -0.615300
     21 O21          5.1750    -1.3830    -5.0780 o          1 RCX      -0.615300
     22 C22          3.9480     0.7430    -6.1240 c3         1 RCX      -0.225300
     23 H2           2.3700    -0.8900     1.6630 h1         1 RCX       0.084700
     24 H3          -1.6940    -1.9450    -0.8090 ha         1 RCX       0.136000
     25 H4          -3.1220    -1.9360    -2.8170 ha         1 RCX       0.133500
     26 H5          -3.0970    -0.0020    -4.3420 ha         1 RCX       0.131000
     27 H6          -1.6520     1.9360    -3.8660 ha         1 RCX       0.133500
     28 H7          -0.2210     1.9480    -1.8620 ha         1 RCX       0.136000
     29 H8           1.6040    -1.9470    -1.8570 ha         1 RCX       0.144500
     30 H9           3.0810    -1.9370    -3.8270 ha         1 RCX       0.156500
     31 H10          4.5420     1.9290    -2.7420 ha         1 RCX       0.156500
     32 H11          3.0720     1.9460    -0.7670 ha         1 RCX       0.144500
     33 H12          3.1240     0.0840    -6.3690 h1         1 RCX       0.099700
     34 H13          4.5610     0.8960    -7.0030 h1         1 RCX       0.099700
     35 H14          3.5600     1.6950    -5.7830 h1         1 RCX       0.099700
     36 H1           2.3720     0.8890     1.6630 h1         1 RCX       0.084700
@<TRIPOS>BOND
     1     5     4 1
     2     5     3 1
     3     6     4 2
     4     4     1 1
     5     3     2 1
     6     1     2 2
     7     1     7 1
     8     2    13 1
     9    12     7 ar
    10    12    11 ar
    11    13    18 ar
    12    13    14 ar
    13     7     8 ar
    14    18    17 ar
    15    11    10 ar
    16    14    15 ar
    17    17    16 ar
    18     8     9 ar
    19    15    16 ar
    20    16    19 1
    21    10     9 ar
    22    20    19 2
    23    19    21 2
    24    19    22 1
    25     3    23 1
    26     8    24 1
    27     9    25 1
    28    10    26 1
    29    11    27 1
    30    12    28 1
    31    14    29 1
    32    15    30 1
    33    17    31 1
    34    18    32 1
    35    22    33 1
    36    22    34 1
    37    22    35 1
    38     3    36 1
@<TRIPOS>SUBSTRUCTURE
     1 RCX         1 TEMP              0 ****  ****    0 ROOT
