@<TRIPOS>MOLECULE
molecule
   31    32     1     0     0
SMALL
bcc


@<TRIPOS>ATOM
      1 C8           0.0000     0.0000     0.0000 ca         1 RD1      -0.163000
      2 C7           1.3600     0.0000     0.0000 ca         1 RD1      -0.174000
      3 C6           2.0790     0.0000     1.2000 ca         1 RD1       0.131100
      4 C5           1.4340    -0.0010     2.4030 ca         1 RD1      -0.145000
      5 C8A         -0.6970    -0.0010     1.2220 ca         1 RD1      -0.028000
      6 C1          -2.1010    -0.0010     1.2590 ca         1 RD1      -0.219000
      7 C4A          0.0300    -0.0010     2.4390 ca         1 RD1      -0.049000
      8 C4          -0.6690    -0.0010     3.6580 ca         1 RD1      -0.201000
      9 C3          -2.0290    -0.0010     3.6550 ca         1 RD1      -0.046000
     10 C2          -2.7440    -0.0010     2.4590 ca         1 RD1       0.121700
     11 O1           3.4370     0.0000     1.1660 os         1 RD1      -0.507500
     12 C9          -4.2500    -0.0010     2.4940 c3         1 RD1      -0.347800
     13 P10          4.0920     1.4720     1.1510 p5         1 RD1       1.208900
     14 P11         -4.8380    -1.4890     3.3670 p5         1 RD1       1.129200
     15 P12         -4.8370     1.4870     3.3680 p5         1 RD1       1.129200
     16 O13          3.5890     2.2470     2.3060 o          1 RD1      -0.934500
     17 O14          5.6950     1.3460     1.2450 o          1 RD1      -0.934500
     18 O15          3.6910     2.2220    -0.2160 o          1 RD1      -0.934500
     19 O16         -6.4470    -1.4890     3.4050 o          1 RD1      -0.950500
     20 O17         -4.3620    -2.6980     2.6580 o          1 RD1      -0.950500
     21 O18         -4.2660    -1.4900     4.8720 o          1 RD1      -0.950500
     22 O19         -4.0160     2.7720     2.8520 o          1 RD1      -0.950500
     23 O20         -6.2800     1.6820     3.0970 o          1 RD1      -0.950500
     24 O21         -4.6090     1.3060     4.9510 o          1 RD1      -0.950500
     25 H8          -0.5440    -0.0000    -0.9370 ha         1 RD1       0.065000
     26 H7           1.8940     0.0010    -0.9430 ha         1 RD1       0.085000
     27 H5           2.0020    -0.0010     3.3250 ha         1 RD1       0.107000
     28 H11         -2.6700    -0.0010     0.3360 ha         1 RD1       0.085000
     29 H4          -0.1270    -0.0010     4.5960 ha         1 RD1       0.073000
     30 H3          -2.5650    -0.0010     4.5960 ha         1 RD1       0.225000
     31 H9          -4.6350     0.0000     1.4810 hc         1 RD1       0.026700
@<TRIPOS>BOND
     1     1     2 ar
     2     1     5 ar
     3     2     3 ar
     4     3     4 ar
     5     3    11 1
     6     4     7 ar
     7     5     6 ar
     8     5     7 ar
     9     6    10 ar
    10     7     8 ar
    11     8     9 ar
    12     9    10 ar
    13    10    12 1
    14    11    13 1
    15    12    14 1
    16    12    15 1
    17    13    16 1
    18    13    17 1
    19    13    18 1
    20    14    19 1
    21    14    20 1
    22    14    21 1
    23    15    22 1
    24    15    23 1
    25    15    24 1
    26     1    25 1
    27     2    26 1
    28     4    27 1
    29     6    28 1
    30     8    29 1
    31     9    30 1
    32    12    31 1
@<TRIPOS>SUBSTRUCTURE
     1 RD1         1 TEMP              0 ****  ****    0 ROOT
