@<TRIPOS>MOLECULE
molecule
   28    29     1     0     0
SMALL
bcc


@<TRIPOS>ATOM
      1 O1           0.0000     0.0000     0.0000 oh         1 RD2      -0.557100
      2 C2           1.3590     0.0000     0.0000 ca         1 RD2      -0.069900
      3 C3           2.0320     0.0000     1.1890 ca         1 RD2      -0.132000
      4 C4           3.4360    -0.0010     1.1900 ca         1 RD2      -0.051000
      5 C5           4.1340    -0.0010    -0.0430 ca         1 RD2       0.002000
      6 C6           3.4090    -0.0010    -1.2470 ca         1 RD2      -0.149000
      7 C7           2.0490    -0.0060    -1.2150 ca         1 RD2      -0.199000
      8 C9           4.1630    -0.0010     2.3940 ca         1 RD2      -0.229000
      9 C10          5.5240    -0.0000     2.3580 ca         1 RD2       0.016000
     10 C11          6.2100    -0.0000     1.1440 ca         1 RD2       0.119700
     11 C12          5.5400    -0.0010    -0.0390 ca         1 RD2      -0.225000
     12 C13          7.7170     0.0000     1.1440 c3         1 RD2      -0.262800
     13 P14          8.3250     1.4900     2.0030 p5         1 RD2       1.081700
     14 P15          8.3260    -1.4870     2.0040 p5         1 RD2       1.081700
     15 O16          9.7600     1.3230     2.3230 o          1 RD2      -0.915667
     16 O17          8.1320     2.7730     1.0510 o          1 RD2      -0.915667
     17 O18          7.4910     1.7010     3.3640 o          1 RD2      -0.915667
     18 O19          7.8330    -1.4870     3.4000 o          1 RD2      -0.915667
     19 O20          7.7890    -2.8020     1.2450 o          1 RD2      -0.915667
     20 O21          9.9350    -1.4870     2.0040 o          1 RD2      -0.915667
     21 H1          -0.3140     0.8890     0.0110 ho         1 RD2       0.349000
     22 H3           1.4290    -0.0600     2.0870 ha         1 RD2       0.085000
     23 H6           3.8180     0.0040    -2.2500 ha         1 RD2       0.086000
     24 H7           1.5260    -0.0630    -2.1620 ha         1 RD2       0.059000
     25 H9           3.6430    -0.0000     3.3450 ha         1 RD2       0.083000
     26 H10          6.0820    -0.0000     3.2860 ha         1 RD2       0.248000
     27 H121         6.0860    -0.0010    -0.9750 ha         1 RD2       0.111000
     28 H23          8.0780    -0.0000     0.1220 hc         1 RD2       0.047700
@<TRIPOS>BOND
     1    15    13 1
     2    16    13 1
     3     8     9 ar
     4     8     4 ar
     5     3     4 ar
     6     3     2 ar
     7    13    17 1
     8    13    12 1
     9     1     2 1
    10     9    10 ar
    11     4     5 ar
    12     2     7 ar
    13    10    12 1
    14    10    11 ar
    15     5    11 ar
    16     5     6 ar
    17    18    14 1
    18     7     6 ar
    19    12    14 1
    20    14    20 1
    21    14    19 1
    22     1    21 1
    23     3    22 1
    24     6    23 1
    25     7    24 1
    26     8    25 1
    27     9    26 1
    28    11    27 1
    29    12    28 1
@<TRIPOS>SUBSTRUCTURE
     1 RD2         1 TEMP              0 ****  ****    0 ROOT
