@<TRIPOS>MOLECULE
molecule
   25    25     1     0     0
SMALL
bcc


@<TRIPOS>ATOM
      1 C1           0.0000     0.0000     0.0000 c3         1 RD3      -0.360800
      2 C2           1.5060     0.0000     0.0000 ca         1 RD3       0.073700
      3 C3           2.1970     0.0000     1.1980 ca         1 RD3      -0.131500
      4 C4           3.5780    -0.0000     1.2010 ca         1 RD3      -0.184500
      5 C5           4.2730    -0.0010     0.0010 ca         1 RD3       0.106100
      6 C6           3.5780    -0.0010    -1.2000 ca         1 RD3      -0.184500
      7 C7           2.1970    -0.0060    -1.1980 ca         1 RD3      -0.131500
      8 P8          -0.6080     1.4880    -0.8610 p5         1 RD3       1.150700
      9 P9          -0.6080    -1.4890    -0.8590 p5         1 RD3       1.150700
     10 O10          5.6320    -0.0000     0.0010 os         1 RD3      -0.523500
     11 P11          6.2870    -1.4710     0.0020 p5         1 RD3       1.229900
     12 O12          5.7570    -2.2480    -1.1410 o          1 RD3      -0.948500
     13 O14          7.8870    -1.3470    -0.1300 o          1 RD3      -0.948500
     14 O15          5.9190    -2.2220     1.3780 o          1 RD3      -0.948500
     15 O16         -0.1140     1.4880    -2.2550 o          1 RD3      -0.963500
     16 O17         -2.2180     1.4890    -0.8610 o          1 RD3      -0.963500
     17 O18         -0.0710     2.8030    -0.1020 o          1 RD3      -0.963500
     18 O19         -0.1150    -2.6970    -0.1610 o          1 RD3      -0.963500
     19 O20         -2.2180    -1.4880    -0.8600 o          1 RD3      -0.963500
     20 O21         -0.0710    -1.4890    -2.3770 o          1 RD3      -0.963500
     21 H3           1.6540     0.0000     2.1360 ha         1 RD3       0.137500
     22 H4           4.1180    -0.0000     2.1400 ha         1 RD3       0.072000
     23 H6           4.1190    -0.0030    -2.1390 ha         1 RD3       0.072000
     24 H7           1.6540    -0.0060    -2.1350 ha         1 RD3       0.137500
     25 H1          -0.3610     0.0010     1.0210 hc         1 RD3       0.014700
@<TRIPOS>BOND
     1     1     2 1
     2     1     8 1
     3     1     9 1
     4     2     3 ar
     5     2     7 ar
     6     3     4 ar
     7     4     5 ar
     8     5     6 ar
     9     5    10 1
    10     6     7 ar
    11     8    15 1
    12     8    16 1
    13     8    17 1
    14     9    18 1
    15     9    19 1
    16     9    20 1
    17    10    11 1
    18    11    12 1
    19    11    13 1
    20    11    14 1
    21     1    25 1
    22     3    21 1
    23     4    22 1
    24     6    23 1
    25     7    24 1
@<TRIPOS>SUBSTRUCTURE
     1 RD3         1 TEMP              0 ****  ****    0 ROOT
