@<TRIPOS>MOLECULE
RDA
   46    47     1     0     0
SMALL
bcc


@<TRIPOS>ATOM
      1 C7           0.0000     0.0000     0.0000 c3         1 RDA       0.273700
      2 O4           1.4520     0.0000     0.0000 os         1 RDA      -0.422900
      3 C6           2.1250     0.0000     1.1670 c          1 RDA       0.741700
      4 O3           1.5180     0.0010     2.2200 o          1 RDA      -0.572000
      5 C5           3.5970    -0.0010     1.1680 ca         1 RDA      -0.166600
      6 C4           4.3020    -1.2150     1.1680 ca         1 RDA       0.209100
      7 O2           3.6280    -2.3930     1.1690 oh         1 RDA      -0.479100
      8 C3           5.6850    -1.2060     1.1680 ca         1 RDA      -0.243000
      9 C2           6.3730    -0.0020     1.1670 ca         1 RDA       0.189100
     10 O1           7.7300     0.0020     1.1670 oh         1 RDA      -0.489100
     11 C1           5.6760     1.2040     1.1660 ca         1 RDA      -0.109600
     12 Cl           6.5470     2.7060     1.1650 cl         1 RDA       0.011600
     13 C8           4.3000     1.2100     1.1610 ca         1 RDA       0.003700
     14 C9           3.5510     2.5160     1.1600 c3         1 RDA       0.018900
     15 C10          3.3020     2.9610    -0.2820 c3         1 RDA      -0.101400
     16 C11          2.5530     4.2680    -0.2840 c          1 RDA       0.554100
     17 O5           2.2470     4.7930     0.7670 o          1 RDA      -0.635100
     18 N1           2.2220     4.8540    -1.4510 ns         1 RDA      -0.014100
     19 C12          1.4200     6.0060    -1.4560 ca         1 RDA      -0.131400
     20 C18          0.5620     6.2580    -0.3960 ca         1 RDA      -0.095000
     21 C17         -0.2300     7.3950    -0.4000 ca         1 RDA       0.087100
     22 O8          -1.0720     7.6420     0.6400 oh         1 RDA      -0.480100
     23 C15         -0.1640     8.2840    -1.4680 ca         1 RDA       0.114100
     24 O7          -0.9410     9.4010    -1.4720 os         1 RDA      -0.266900
     25 C16         -0.6510    10.1000    -2.6840 c3         1 RDA       0.213700
     26 C14          0.6930     8.0330    -2.5280 ca         1 RDA      -0.262000
     27 C13          1.4890     6.8990    -2.5210 ca         1 RDA       0.126100
     28 O6           2.3310     6.6520    -3.5610 oh         1 RDA      -0.500100
     29 H71         -0.3610     0.8130     0.6180 h1         1 RDA       0.000700
     30 H72         -0.3610     0.1280    -1.0130 h1         1 RDA       0.000700
     31 H73         -0.3610    -0.9420     0.3960 h1         1 RDA       0.000700
     32 HO2          4.0540    -2.9990     1.7520 ho         1 RDA       0.412000
     33 H3           6.2320    -2.1410     1.1680 ha         1 RDA       0.127000
     34 HO1          8.0450    -0.2770     2.0110 ho         1 RDA       0.411000
     35 H91          2.6020     2.3890     1.6680 hc         1 RDA       0.050200
     36 H92          4.1370     3.2690     1.6740 hc         1 RDA       0.050200
     37 H101         4.2500     3.0880    -0.7900 hc         1 RDA       0.038200
     38 H102         2.7150     2.2090    -0.7960 hc         1 RDA       0.038200
     39 HN1          2.5670     4.4810    -2.3140 hn         1 RDA       0.177500
     40 H18          0.4720     5.5390     0.4100 ha         1 RDA       0.164000
     41 HO8         -1.9000     7.2200     0.4810 ho         1 RDA       0.397000
     42 H161        -0.8790     9.4650    -3.5320 h1         1 RDA       0.001700
     43 H162        -1.2530    11.0000    -2.7350 h1         1 RDA       0.001700
     44 H163         0.3990    10.3670    -2.7050 h1         1 RDA       0.001700
     45 H14          0.7460     8.7270    -3.3590 ha         1 RDA       0.142000
     46 HO6          2.8470     7.4210    -3.7380 ho         1 RDA       0.409000
@<TRIPOS>BOND
     1     1     2 1   
     2     1    29 1   
     3     1    30 1   
     4     1    31 1   
     5     2     3 1   
     6     3     4 2   
     7     3     5 1   
     8     5     6 ar  
     9     5    13 ar  
    10     6     7 1   
    11     6     8 ar  
    12     7    32 1   
    13     8     9 ar  
    14     8    33 1   
    15     9    10 1   
    16     9    11 ar  
    17    10    34 1   
    18    11    12 1   
    19    11    13 ar  
    20    13    14 1   
    21    14    15 1   
    22    14    35 1   
    23    14    36 1   
    24    15    16 1   
    25    15    37 1   
    26    15    38 1   
    27    16    17 2   
    28    16    18 1   
    29    18    19 1   
    30    18    39 1   
    31    19    20 ar  
    32    19    27 ar  
    33    20    21 ar  
    34    20    40 1   
    35    21    22 1   
    36    21    23 ar  
    37    22    41 1   
    38    23    24 1   
    39    23    26 ar  
    40    24    25 1   
    41    25    42 1   
    42    25    43 1   
    43    25    44 1   
    44    26    27 ar  
    45    26    45 1   
    46    27    28 1   
    47    28    46 1   
@<TRIPOS>SUBSTRUCTURE
     1 RDA         1 TEMP              0 ****  ****    0 ROOT
