@<TRIPOS>MOLECULE
RDC
   42    44     1     0     0
SMALL
bcc


@<TRIPOS>ATOM
      1 C1         -0.0210    0.6120   -0.4530 c         1 RDC      0.677700
      2 C2          1.4210    0.3440   -0.2480 ca        1 RDC     -0.179600
      3 C3          2.3150    0.5890   -1.3100 ca        1 RDC      0.206100
      4 C4          3.6920    0.4090   -1.1500 ca        1 RDC     -0.251000
      5 C5          4.1750   -0.0250    0.0910 ca        1 RDC      0.199100
      6 C6          3.2910   -0.2860    1.1580 ca        1 RDC     -0.113600
      7 C7          1.9080   -0.1090    0.9880 ca        1 RDC      0.051700
      8 C8          0.9610   -0.4300    2.0930 c3        1 RDC     -0.162100
      9 C9          0.7890    0.6990    3.0890 c         1 RDC      0.578300
     10 C10         0.1980    1.9250    2.5300 ce        1 RDC     -0.252200
     11 C11        -0.9440    2.4970    2.9210 cf        1 RDC     -0.072000
     12 C12        -1.8030    2.0780    4.0140 cf        1 RDC     -0.119000
     13 C13        -2.8120    1.2050    3.9750 c2        1 RDC     -0.151200
     14 C14        -3.2590    0.3630    2.8590 cx        1 RDC      0.093300
     15 C15        -2.8490    0.5140    1.4290 cx        1 RDC      0.059100
     16 C16        -2.8480   -0.6980    0.5470 c3        1 RDC     -0.105400
     17 C17        -2.1690   -0.5250   -0.8060 c3        1 RDC      0.165100
     18 C18        -2.7200    0.6170   -1.6260 c3        1 RDC     -0.120100
     19 O1         -0.7390   -0.5300   -0.6500 os        1 RDC     -0.437900
     20 O2         -0.5720    1.7120   -0.4570 o         1 RDC     -0.531000
     21 O3          1.7690    1.0020   -2.4980 oh        1 RDC     -0.480100
     22 O4          5.5340   -0.1730    0.1710 oh        1 RDC     -0.483100
     23 CL1         3.9230   -0.8170    2.6460 cl        1 RDC     -0.067400
     24 O5          1.1070    0.5560    4.2720 o         1 RDC     -0.508100
     25 O6         -4.1410    0.9530    1.8830 os        1 RDC     -0.395600
     26 H4          4.3960    0.6010   -1.9720 ha        1 RDC      0.165000
     27 H81        -0.0570   -0.6660    1.6690 hc        1 RDC      0.093200
     28 H82         1.3130   -1.3480    2.6400 hc        1 RDC      0.093200
     29 H10         0.7650    2.3450    1.6790 ha        1 RDC      0.160000
     30 H11        -1.3020    3.4040    2.3940 ha        1 RDC      0.147000
     31 H12        -1.5770    2.5980    4.9670 ha        1 RDC      0.145000
     32 H13        -3.4070    1.0410    4.8940 ha        1 RDC      0.135000
     33 H14        -3.6030   -0.6410    3.1950 h1        1 RDC      0.086700
     34 H15        -2.1760    1.3410    1.1180 h1        1 RDC      0.119700
     35 H161       -2.3310   -1.5340    1.0930 hc        1 RDC      0.067700
     36 H162       -3.9090   -1.0160    0.3550 hc        1 RDC      0.067700
     37 H17        -2.3090   -1.4930   -1.3830 h1        1 RDC      0.072700
     38 H181       -2.0300    0.8500   -2.4730 hc        1 RDC      0.057700
     39 H182       -2.8440    1.5410   -1.0100 hc        1 RDC      0.057700
     40 H183       -3.7180    0.3250   -2.0350 hc        1 RDC      0.057700
     41 HO3         2.4910    1.1690   -3.1230 ho        1 RDC      0.433000
     42 HO4         5.7640   -0.4690    1.0690 ho        1 RDC      0.439000
@<TRIPOS>BOND
     1    1    2 1   
     2    1   19 1   
     3    1   20 2   
     4    2    3 ar  
     5    2    7 ar  
     6    3    4 ar  
     7    3   21 1   
     8    4    5 ar  
     9    4   26 1   
    10    5    6 ar  
    11    5   22 1   
    12    6    7 ar  
    13    6   23 1   
    14    7    8 1   
    15    8    9 1   
    16    8   27 1   
    17    8   28 1   
    18    9   10 1   
    19    9   24 2   
    20   10   11 2   
    21   10   29 1   
    22   11   12 1   
    23   11   30 1   
    24   12   13 2   
    25   12   31 1   
    26   13   14 1   
    27   13   32 1   
    28   14   15 1   
    29   14   25 1   
    30   14   33 1   
    31   15   16 1   
    32   15   25 1   
    33   15   34 1   
    34   16   17 1   
    35   16   35 1   
    36   16   36 1   
    37   17   18 1   
    38   17   19 1   
    39   17   37 1   
    40   18   38 1   
    41   18   39 1   
    42   18   40 1   
    43   21   41 1   
    44   22   42 1   
@<TRIPOS>SUBSTRUCTURE
     1 RDC         1 TEMP              0 ****  ****    0 ROOT
