@<TRIPOS>MOLECULE
RDD
   29    30     1     0     0
SMALL
bcc


@<TRIPOS>ATOM
      1 C2           0.0000     0.0000     0.0000 c          1 RDD       0.601000
      2 C6          -0.0010    -0.0110     2.3340 c          1 RDD       0.601000
      3 C4           2.0210     0.0000     1.1680 c          1 RDD       0.586500
      4 O6          -0.6100    -0.0150     3.3860 o          1 RDD      -0.659500
      5 N5           1.3460    -0.0120     2.3350 ns         1 RDD      -0.149000
      6 O4           3.2370    -0.0000     1.1690 o          1 RDD      -0.667500
      7 N3           1.3480     0.0000     0.0000 ns         1 RDD      -0.149000
      8 O2          -0.6070    -0.0010    -1.0530 o          1 RDD      -0.659500
      9 N1          -0.6750    -0.0050     1.1670 n          1 RDD      -0.106400
     10 C1'         -2.1390    -0.0050     1.1660 c3         1 RDD       0.227500
     11 O4'         -2.6420     1.0800     1.9750 os         1 RDD      -0.373600
     12 C4'         -3.9970     0.7090     2.3090 c3         1 RDD       0.163100
     13 C5'         -4.4710     1.4790     3.5440 c3         1 RDD       0.223400
     14 O5'         -4.5680     2.8690     3.2310 oh         1 RDD      -0.581800
     15 C3'         -3.9280    -0.8040     2.6130 c3         1 RDD       0.142100
     16 O3'         -5.1000    -1.4650     2.1290 oh         1 RDD      -0.552800
     17 C2'         -2.6780    -1.2840     1.8430 c3         1 RDD       0.116100
     18 O2'         -3.0380    -2.2580     0.8610 oh         1 RDD      -0.547800
     19 HN5          1.8460    -0.0210     3.2020 hn         1 RDD       0.224500
     20 HN3          1.8480     0.0080    -0.8670 hn         1 RDD       0.224500
     21 H1'         -2.5210     0.0730     0.1550 h2         1 RDD       0.087700
     22 H4'         -4.6550     0.8930     1.4680 h1         1 RDD       0.048700
     23 H5'         -3.7610     1.3400     4.3510 h1         1 RDD      -0.004800
     24 H5'A        -5.4420     1.1090     3.8500 h1         1 RDD      -0.004800
     25 HO5'        -4.9280     3.3330     3.9680 ho         1 RDD       0.389000
     26 H3'         -3.8030    -0.9700     3.6760 h1         1 RDD       0.019700
     27 HO3'        -5.4690    -1.9930     2.8180 ho         1 RDD       0.386000
     28 H2'         -1.9430    -1.6850     2.5300 h1         1 RDD       0.030700
     29 HO2'        -2.6840    -3.0970     1.1040 ho         1 RDD       0.387000
@<TRIPOS>BOND
     1     1     7 1   
     2     1     8 2   
     3     1     9 1   
     4     2     4 2   
     5     2     5 1   
     6     2     9 1   
     7     3     5 1   
     8     3     6 2   
     9     3     7 1   
    10     5    19 1   
    11     7    20 1   
    12     9    10 1   
    13    10    11 1   
    14    10    17 1   
    15    10    21 1   
    16    11    12 1   
    17    12    13 1   
    18    12    15 1   
    19    12    22 1   
    20    13    14 1   
    21    13    23 1   
    22    13    24 1   
    23    14    25 1   
    24    15    16 1   
    25    15    17 1   
    26    15    26 1   
    27    16    27 1   
    28    17    18 1   
    29    17    28 1   
    30    18    29 1   
@<TRIPOS>SUBSTRUCTURE
     1 RDD         1 TEMP              0 ****  ****    0 ROOT
