@<TRIPOS>MOLECULE
molecule
   47    48     1     0     0
SMALL
bcc


@<TRIPOS>ATOM
      1 CAC          0.0000     0.0000     0.0000 c3         1 RDE       0.113700
      2 OAP          1.4280     0.0000     0.0000 os         1 RDE      -0.308900
      3 CBA          1.8230     0.0000     1.3030 ca         1 RDE       0.067100
      4 CAW          1.9340     1.2010     1.9940 ca         1 RDE       0.104100
      5 OAN          1.6440     2.3750     1.3710 os         1 RDE      -0.282900
      6 CAA          1.8440     3.4140     2.3310 c3         1 RDE       0.102700
      7 CAJ          2.3360     1.2020     3.3210 ca         1 RDE      -0.230000
      8 CAS          2.6300     0.0060     3.9570 ca         1 RDE       0.182600
      9 NAD          3.0360     0.0060     5.2990 nv         1 RDE      -0.979200
     10 CAZ          2.5240    -1.1960     3.2610 ca         1 RDE       0.052100
     11 OAO          2.8130    -2.3710     3.8840 os         1 RDE      -0.314900
     12 CAB          1.6130    -2.8030     4.5280 c3         1 RDE       0.117700
     13 CAY          2.1230    -1.1960     1.9360 ca         1 RDE      -0.083300
     14 CAM          2.0070    -2.4960     1.1830 c3         1 RDE      -0.027100
     15 CAL          3.3650    -2.8580     0.5780 c3         1 RDE       0.167400
     16 OAQ          3.2810    -4.1630    -0.0550 os         1 RDE      -0.450900
     17 CAR          4.3640    -4.6900    -0.6580 c          1 RDE       0.657700
     18 OAE          5.4120    -4.0740    -0.6720 o          1 RDE      -0.524000
     19 CAX          4.2780    -6.0110    -1.2990 ca         1 RDE      -0.166600
     20 CAK          3.0730    -6.7230    -1.2850 ca         1 RDE      -0.025000
     21 CAV          2.9980    -7.9580    -1.8870 ca         1 RDE      -0.054600
     22 ClAH         1.5030    -8.8390    -1.8680 cl         1 RDE      -0.088400
     23 CAT          4.1180    -8.5040    -2.5100 ca         1 RDE       0.184100
     24 OAF          4.0350    -9.7220    -3.1020 oh         1 RDE      -0.510100
     25 CAI          5.3160    -7.8080    -2.5300 ca         1 RDE      -0.271000
     26 CAU          5.4040    -6.5610    -1.9330 ca         1 RDE       0.213100
     27 OAG          6.5760    -5.8790    -1.9520 oh         1 RDE      -0.446100
     28 HAC1        -0.3610    -0.2560     0.9890 h1         1 RDE       0.038033
     29 HAC2        -0.3610     0.9840    -0.2730 h1         1 RDE       0.038033
     30 HAC3        -0.3610    -0.7290    -0.7160 h1         1 RDE       0.038033
     31 HAA1         2.8740     3.4010     2.6680 h1         1 RDE       0.045033
     32 HAA2         1.1860     3.2560     3.1770 h1         1 RDE       0.045033
     33 HAA3         1.6250     4.3720     1.8770 h1         1 RDE       0.045033
     34 HAJ1         2.4220     2.1380     3.8600 ha         1 RDE       0.154000
     35 HAD          2.3640     0.1600     6.0240 hn         1 RDE       0.432800
     36 HAC          4.0040    -0.1020     5.5280 hn         1 RDE       0.432800
     37 HAB1         1.7500    -2.7770     5.6030 h1         1 RDE       0.036033
     38 HAB2         0.7980    -2.1450     4.2520 h1         1 RDE       0.036033
     39 HAB3         1.3810    -3.8150     4.2190 h1         1 RDE       0.036033
     40 HAM1         1.6930    -3.2800     1.8620 hc         1 RDE       0.062700
     41 HAM2         1.2750    -2.3900     0.3910 hc         1 RDE       0.062700
     42 HAL1         3.6410    -2.1160    -0.1610 h1         1 RDE       0.060700
     43 HAL2         4.1130    -2.8850     1.3610 h1         1 RDE       0.060700
     44 HAK1         2.1950    -6.2920    -0.8200 ha         1 RDE       0.170000
     45 HAA          4.3650   -10.3810    -2.5130 ho         1 RDE       0.431000
     46 HAI1         6.1830    -8.2360    -3.0180 ha         1 RDE       0.152000
     47 HAB          7.2430    -6.4110    -2.3530 ho         1 RDE       0.422000
@<TRIPOS>BOND
     1     1     2 1
     2     1    28 1
     3     1    29 1
     4     1    30 1
     5     2     3 1
     6     3     4 ar
     7     3    13 ar
     8     4     5 1
     9     4     7 ar
    10     5     6 1
    11     6    31 1
    12     6    32 1
    13     6    33 1
    14     7     8 ar
    15     7    34 1
    16     8     9 1
    17     8    10 ar
    18     9    35 1
    19     9    36 1
    20    10    11 1
    21    10    13 ar
    22    11    12 1
    23    12    37 1
    24    12    38 1
    25    12    39 1
    26    13    14 1
    27    14    15 1
    28    14    40 1
    29    14    41 1
    30    15    16 1
    31    15    42 1
    32    15    43 1
    33    16    17 1
    34    17    18 2
    35    17    19 1
    36    19    20 ar
    37    19    26 ar
    38    20    21 ar
    39    20    44 1
    40    21    22 1
    41    21    23 ar
    42    23    24 1
    43    23    25 ar
    44    24    45 1
    45    25    26 ar
    46    25    46 1
    47    26    27 1
    48    27    47 1
@<TRIPOS>SUBSTRUCTURE
     1 RDE         1 TEMP              0 ****  ****    0 ROOT
