@<TRIPOS>MOLECULE
RDI
   48    50     1     0     0
SMALL
bcc


@<TRIPOS>ATOM
      1 C1         -0.0800   -0.0070   -0.2790 c         1 RDI      0.640100
      2 C2          1.4230   -0.0420   -0.1690 c3        1 RDI     -0.248700
      3 C3          2.0270   -1.2070   -0.9210 c         1 RDI      0.581100
      4 C4          3.4780   -1.4880   -0.6540 c3        1 RDI     -0.289400
      5 C5          3.8840   -1.3180    0.7770 c         1 RDI      0.573100
      6 C6          3.3240   -0.1100    1.4940 c3        1 RDI     -0.063300
      7 C7          1.8150   -0.0030    1.3120 c3        1 RDI     -0.042700
      8 C8          1.1250   -1.0700    2.1590 c3        1 RDI     -0.202400
      9 C9          0.9150   -0.5660    3.5680 c         1 RDI      0.568100
     10 C10        -0.5000   -0.2540    3.9660 c3        1 RDI     -0.180400
     11 C11        -0.9700    1.0390    3.3290 c3        1 RDI     -0.082400
     12 C12        -2.4290    1.3050    3.6320 c3        1 RDI     -0.072400
     13 C13        -2.9170    2.5970    3.0060 c3        1 RDI     -0.075400
     14 C14        -2.8800    2.5490    1.5080 cx        1 RDI      0.076100
     15 C15        -2.1580    3.5850    0.7100 cx        1 RDI      0.058100
     16 C16        -1.6030    3.2620   -0.6460 c3        1 RDI     -0.076400
     17 C17        -0.3210    2.4270   -0.5420 c3        1 RDI      0.161100
     18 C18         0.6660    3.0780    0.4080 c3        1 RDI     -0.139100
     19 O1         -0.7830    1.1530   -0.0650 os        1 RDI     -0.444900
     20 O2         -0.8290   -0.9730   -0.4120 o         1 RDI     -0.451000
     21 O3          1.4050   -1.8400   -1.7730 o         1 RDI     -0.474100
     22 O4          4.6420   -2.1040    1.3450 o         1 RDI     -0.479100
     23 CL1         4.1520    1.3330    0.9060 cl        1 RDI     -0.161400
     24 O5          1.8640   -0.4270    4.3460 o         1 RDI     -0.525100
     25 O6         -3.5900    3.5960    0.8230 os        1 RDI     -0.401600
     26 H2          1.8420    0.8840   -0.6660 hc        1 RDI      0.104700
     27 H41         3.7240   -2.5330   -0.9960 hc        1 RDI      0.112700
     28 H42         4.0920   -0.7790   -1.2790 hc        1 RDI      0.112700
     29 H6          3.5590   -0.1690    2.5950 h1        1 RDI      0.138700
     30 H7          1.4840    1.0080    1.7020 hc        1 RDI      0.087700
     31 H81         1.7530   -2.0010    2.1980 hc        1 RDI      0.089200
     32 H82         0.1350   -1.3510    1.7100 hc        1 RDI      0.089200
     33 H101       -0.5620   -0.1690    5.0840 hc        1 RDI      0.073200
     34 H102       -1.1650   -1.1010    3.6490 hc        1 RDI      0.073200
     35 H111       -0.8310    0.9830    2.2140 hc        1 RDI      0.051700
     36 H112       -0.3440    1.8910    3.7040 hc        1 RDI      0.051700
     37 H121       -2.5760    1.3650    4.7430 hc        1 RDI      0.048700
     38 H122       -3.0500    0.4490    3.2570 hc        1 RDI      0.048700
     39 H131       -2.2990    3.4560    3.3780 hc        1 RDI      0.056700
     40 H132       -3.9770    2.7850    3.3310 hc        1 RDI      0.056700
     41 H14        -3.0280    1.5420    1.0630 h1        1 RDI      0.109700
     42 H15        -1.6640    4.4340    1.2240 h1        1 RDI      0.084700
     43 H161       -1.3640    4.2090   -1.1950 hc        1 RDI      0.074200
     44 H162       -2.3650    2.6930   -1.2430 hc        1 RDI      0.074200
     45 H17         0.1330    2.2970   -1.5620 h1        1 RDI      0.052700
     46 H181        1.6980    2.6760    0.2740 hc        1 RDI      0.053700
     47 H182        0.3480    2.9150    1.4680 hc        1 RDI      0.053700
     48 H183        0.6950    4.1780    0.2120 hc        1 RDI      0.053700
@<TRIPOS>BOND
     1    1    2 1   
     2    1   19 1   
     3    1   20 2   
     4    2    3 1   
     5    2    7 1   
     6    2   26 1   
     7    3    4 1   
     8    3   21 2   
     9    4    5 1   
    10    4   27 1   
    11    4   28 1   
    12    5    6 1   
    13    5   22 2   
    14    6    7 1   
    15    6   23 1   
    16    6   29 1   
    17    7    8 1   
    18    7   30 1   
    19    8    9 1   
    20    8   31 1   
    21    8   32 1   
    22    9   10 1   
    23    9   24 2   
    24   10   11 1   
    25   10   33 1   
    26   10   34 1   
    27   11   12 1   
    28   11   35 1   
    29   11   36 1   
    30   12   13 1   
    31   12   37 1   
    32   12   38 1   
    33   13   14 1   
    34   13   39 1   
    35   13   40 1   
    36   14   15 1   
    37   14   25 1   
    38   14   41 1   
    39   15   16 1   
    40   15   25 1   
    41   15   42 1   
    42   16   17 1   
    43   16   43 1   
    44   16   44 1   
    45   17   18 1   
    46   17   19 1   
    47   17   45 1   
    48   18   46 1   
    49   18   47 1   
    50   18   48 1   
@<TRIPOS>SUBSTRUCTURE
     1 RDI         1 TEMP              0 ****  ****    0 ROOT
