@<TRIPOS>MOLECULE
molecule
   48    50     1     0     0
SMALL
bcc


@<TRIPOS>ATOM
      1 C1           0.0000     0.0000     0.0000 c          1 RDI       0.665100
      2 C2           1.5010     0.0000     0.0000 c3         1 RDI      -0.277700
      3 C3           2.0130    -1.2480    -0.6880 c          1 RDI       0.571100
      4 C4           3.5230    -1.4550    -0.7130 c3         1 RDI      -0.274400
      5 C5           3.9690    -1.3360     0.7390 c          1 RDI       0.568100
      6 C6           3.5280    -0.0830     1.4690 c3         1 RDI      -0.044300
      7 C7           2.0000     0.0000     1.4490 c3         1 RDI      -0.040700
      8 C8           1.4100    -1.1880     2.2070 c3         1 RDI      -0.213400
      9 C9           0.7100    -0.7010     3.4500 c          1 RDI       0.568100
     10 C10         -0.7670    -0.4020     3.4310 c3         1 RDI      -0.183400
     11 C11         -0.9800     1.1060     3.2760 c3         1 RDI      -0.082400
     12 C12         -2.3990     1.4730     3.7200 c3         1 RDI      -0.075400
     13 C13         -2.8060     2.7990     3.0740 c3         1 RDI      -0.067400
     14 C14         -2.9240     2.6130     1.5590 cx         1 RDI       0.058100
     15 C15         -2.2640     3.6460     0.6540 cx         1 RDI       0.031100
     16 C16         -1.7340     3.1960    -0.7100 c3         1 RDI      -0.061400
     17 C17         -0.4430     2.3830    -0.5520 c3         1 RDI       0.180100
     18 C18          0.4900     3.0970     0.4250 c3         1 RDI      -0.138100
     19 O1          -0.7700     1.0620    -0.0970 os         1 RDI      -0.436900
     20 O2          -0.5620    -1.0770     0.0950 o          1 RDI      -0.475000
     21 O3           1.2660    -2.0450    -1.1960 o          1 RDI      -0.453100
     22 O4           4.6370    -2.1860     1.2740 o          1 RDI      -0.469100
     23 Cl1          4.2220     1.3660     0.6500 cl         1 RDI      -0.175400
     24 O5           1.3390    -0.5520     4.4720 o          1 RDI      -0.520100
     25 O6          -3.6810     3.5920     0.8400 op         1 RDI      -0.382600
     26 H2           1.8730     0.8780    -0.5140 hc         1 RDI       0.095700
     27 H41          3.7590    -2.4400    -1.0980 hc         1 RDI       0.104700
     28 H42          3.9960    -0.6870    -1.3130 hc         1 RDI       0.104700
     29 H6           3.8730    -0.1230     2.4960 h1         1 RDI       0.120700
     30 H7           1.6910     0.9210     1.9290 hc         1 RDI       0.082700
     31 H81          0.6990    -1.7030     1.5720 hc         1 RDI       0.095700
     32 H82          2.2050    -1.8690     2.4840 hc         1 RDI       0.095700
     33 H101        -1.2290    -0.9190     2.6000 hc         1 RDI       0.076200
     34 H102        -1.2150    -0.7360     4.3590 hc         1 RDI       0.076200
     35 H111        -0.2620     1.6360     3.8890 hc         1 RDI       0.049200
     36 H112        -0.8440     1.3840     2.2380 hc         1 RDI       0.049200
     37 H121        -2.4260     1.5730     4.7980 hc         1 RDI       0.052200
     38 H122        -3.0870     0.6950     3.4120 hc         1 RDI       0.052200
     39 H131        -2.0560     3.5510     3.2880 hc         1 RDI       0.056200
     40 H132        -3.7620     3.1180     3.4730 hc         1 RDI       0.056200
     41 H14         -2.9790     1.6110     1.1500 h1         1 RDI       0.110700
     42 H15         -1.7770     4.4670     1.1660 h1         1 RDI       0.089700
     43 H161        -1.5330     4.0680    -1.3200 hc         1 RDI       0.075700
     44 H162        -2.4820     2.5840    -1.1990 hc         1 RDI       0.075700
     45 H17          0.0470     2.3110    -1.5150 h1         1 RDI       0.048700
     46 H181         0.2520     2.7950     1.4380 hc         1 RDI       0.053367
     47 H182         0.3630     4.1690     0.3290 hc         1 RDI       0.053367
     48 H183         1.5170     2.8340     0.2020 hc         1 RDI       0.053367
@<TRIPOS>BOND
     1     1     2 1
     2     1    19 1
     3     1    20 2
     4     2     3 1
     5     2     7 1
     6     2    26 1
     7     3     4 1
     8     3    21 2
     9     4     5 1
    10     4    27 1
    11     4    28 1
    12     5     6 1
    13     5    22 2
    14     6     7 1
    15     6    23 1
    16     6    29 1
    17     7     8 1
    18     7    30 1
    19     8     9 1
    20     8    31 1
    21     8    32 1
    22     9    10 1
    23     9    24 2
    24    10    11 1
    25    10    33 1
    26    10    34 1
    27    11    12 1
    28    11    35 1
    29    11    36 1
    30    12    13 1
    31    12    37 1
    32    12    38 1
    33    13    14 1
    34    13    39 1
    35    13    40 1
    36    14    15 1
    37    14    25 1
    38    14    41 1
    39    15    16 1
    40    15    25 1
    41    15    42 1
    42    16    17 1
    43    16    43 1
    44    16    44 1
    45    17    18 1
    46    17    19 1
    47    17    45 1
    48    18    46 1
    49    18    47 1
    50    18    48 1
@<TRIPOS>SUBSTRUCTURE
     1 RDI         1 TEMP              0 ****  ****    0 ROOT
