@<TRIPOS>MOLECULE
RDL
   37    38     1     0     0
SMALL
bcc


@<TRIPOS>ATOM
      1 O15         0.2110    0.9690    0.3990 oh        1 RDL     -0.607800
      2 C15         1.5330    0.4860    0.2320 c3        1 RDL      0.089400
      3 C14         2.1540    0.4740    1.6340 c3        1 RDL      0.107100
      4 O14         1.4340   -0.4000    2.4860 oh        1 RDL     -0.615800
      5 C13         3.6140   -0.0160    1.5680 c3        1 RDL      0.104100
      6 O13         4.4620    1.0860    1.2750 oh        1 RDL     -0.619800
      7 C12         4.0800   -0.6070    2.9180 c3        1 RDL      0.145100
      8 O12         3.6440   -1.9500    3.0130 oh        1 RDL     -0.593800
      9 C11         5.6240   -0.6840    2.9990 c3        1 RDL      0.065000
     10 N9          6.1740   -0.3460    4.2970 n         1 RDL     -0.377000
     11 C8          6.7470   -1.3610    5.0900 c         1 RDL      0.639500
     12 O8          6.8730   -2.5080    4.6510 o         1 RDL     -0.532500
     13 C7          7.2310   -1.0130    6.4960 c         1 RDL      0.633500
     14 O7          7.7020   -1.8890    7.2360 o         1 RDL     -0.568500
     15 C10         6.1120    0.9740    4.7890 cc        1 RDL      0.203200
     16 C5          6.5910    1.2800    6.0680 cd        1 RDL     -0.191600
     17 N6          7.1170    0.2940    6.9080 n         1 RDL     -0.428100
     18 C4          6.5560    2.6670    6.5810 c         1 RDL      0.732700
     19 O4          6.9690    3.0050    7.7040 o         1 RDL     -0.611500
     20 N3          6.0170    3.6340    5.7260 n         1 RDL     -0.576500
     21 C2          5.5310    3.3320    4.4480 c         1 RDL      0.815500
     22 N1          5.5800    2.0000    3.9980 n         1 RDL     -0.476100
     23 O2          5.0510    4.2150    3.7060 o         1 RDL     -0.630500
     24 H15O       -0.2220    0.9100   -0.4610 ho        1 RDL      0.417000
     25 H151        2.1130    1.1660   -0.4450 h1        1 RDL      0.037700
     26 H152        1.5170   -0.5510   -0.1980 h1        1 RDL      0.037700
     27 H141        2.1250    1.5160    2.0650 h1        1 RDL      0.067700
     28 H14O        0.5010   -0.1520    2.4160 ho        1 RDL      0.439000
     29 H131        3.7220   -0.8020    0.7690 h1        1 RDL      0.066700
     30 H13O        4.1220    1.5140    0.4800 ho        1 RDL      0.421000
     31 H121        3.6360    0.0080    3.7480 h1        1 RDL      0.059700
     32 H12O        2.6880   -1.9440    3.1600 ho        1 RDL      0.432000
     33 H111        5.9210   -1.7510    2.7600 h1        1 RDL      0.102200
     34 H112        6.0900   -0.0180    2.2190 h1        1 RDL      0.102200
     35 HN6         7.4390    0.5750    7.8120 hn        1 RDL      0.364500
     36 HN3         5.9710    4.5860    6.0250 hn        1 RDL      0.363500
     37 HN1         5.2390    1.8250    3.0730 hn        1 RDL      0.382500
@<TRIPOS>BOND
     1    1    2 1   
     2    1   24 1   
     3    2    3 1   
     4    2   25 1   
     5    2   26 1   
     6    3    4 1   
     7    3    5 1   
     8    3   27 1   
     9    4   28 1   
    10    5    6 1   
    11    5    7 1   
    12    5   29 1   
    13    6   30 1   
    14    7    8 1   
    15    7    9 1   
    16    7   31 1   
    17    8   32 1   
    18    9   10 1   
    19    9   33 1   
    20    9   34 1   
    21   10   11 1   
    22   10   15 1   
    23   11   12 2   
    24   11   13 1   
    25   13   14 2   
    26   13   17 1   
    27   15   16 2   
    28   15   22 1   
    29   16   17 1   
    30   16   18 1   
    31   17   35 1   
    32   18   19 2   
    33   18   20 1   
    34   20   21 1   
    35   20   36 1   
    36   21   22 1   
    37   21   23 2   
    38   22   37 1   
@<TRIPOS>SUBSTRUCTURE
     1 RDL         1 TEMP              0 ****  ****    0 ROOT
