@<TRIPOS>MOLECULE
RDS
   36    37     1     0     0
SMALL
bcc


@<TRIPOS>ATOM
      1 Cl           0.0000     0.0000     0.0000 cl         1 RDS      -0.024400
      2 C13          1.7360     0.0000     0.0000 ca         1 RDS      -0.053600
      3 C12          2.4250     0.0000     1.1970 ca         1 RDS      -0.032000
      4 C8           3.8150     0.0010     1.1960 ca         1 RDS       0.035900
      5 C9           4.5060     0.0020    -0.0080 ca         1 RDS      -0.032000
      6 C10          3.8110     0.0020    -1.2020 ca         1 RDS      -0.110000
      7 C11          2.4290    -0.0040    -1.1990 ca         1 RDS      -0.068000
      8 S            4.6980     0.0000     2.7210 ss         1 RDS      -0.349200
      9 C7           4.7250    -1.7290     3.0590 ca         1 RDS       0.806300
     10 N1           5.2300    -2.1540     4.2080 nb         1 RDS      -0.708000
     11 C2           5.2650    -3.4500     4.4990 ca         1 RDS       0.688600
     12 C1           4.7670    -4.3640     3.5790 ca         1 RDS      -0.436600
     13 C            4.2440    -3.8820     2.3810 ca         1 RDS       0.573200
     14 N            3.7350    -4.7560     1.4340 nv         1 RDS      -0.574500
     15 N2           4.2350    -2.5700     2.1600 nb         1 RDS      -0.714000
     16 O            5.7830    -3.8760     5.6760 os         1 RDS      -0.414100
     17 C3           6.2770    -2.8750     6.5670 c3         1 RDS       0.164100
     18 C4           7.7570    -2.6160     6.2770 c3         1 RDS      -0.029100
     19 C5           6.1180    -3.3540     8.0130 c3         1 RDS      -0.032400
     20 C6           4.6300    -3.4920     8.3420 c3         1 RDS       0.001900
     21 H1           1.8830    -0.0010     2.1350 ha         1 RDS       0.126000
     22 H2           5.5890     0.0050    -0.0120 ha         1 RDS       0.117000
     23 H3           4.3500     0.0010    -2.1420 ha         1 RDS       0.109000
     24 H4           1.8860    -0.0040    -2.1360 ha         1 RDS       0.112000
     25 H5           4.7830    -5.4270     3.7880 ha         1 RDS       0.139000
     26 H6           4.0440    -4.7000     0.4840 hn         1 RDS       0.276800
     27 H7           3.0780    -5.4610     1.7060 hn         1 RDS       0.276800
     28 H8           5.7160    -1.9580     6.4270 h1         1 RDS       0.047700
     29 H9           7.8750    -1.6230     5.8620 hc         1 RDS       0.014367
     30 H10          8.1190    -3.3500     5.5670 hc         1 RDS       0.014367
     31 H11          8.3240    -2.6930     7.1970 hc         1 RDS       0.014367
     32 H12          6.6040    -4.3150     8.1300 hc         1 RDS       0.023200
     33 H13          6.5710    -2.6350     8.6840 hc         1 RDS       0.023200
     34 H14          4.0980    -2.6180     7.9860 hc         1 RDS       0.004033
     35 H15          4.5040    -3.5780     9.4150 hc         1 RDS       0.004033
     36 H16          4.2330    -4.3770     7.8600 hc         1 RDS       0.004033
@<TRIPOS>BOND
     1     1     2 1   
     2     2     3 ar  
     3     2     7 ar  
     4     3     4 ar  
     5     3    21 1   
     6     4     5 ar  
     7     4     8 1   
     8     5     6 ar  
     9     5    22 1   
    10     6     7 ar  
    11     6    23 1   
    12     7    24 1   
    13     8     9 1   
    14     9    10 ar  
    15     9    15 ar  
    16    10    11 ar  
    17    11    12 ar  
    18    11    16 1   
    19    12    13 ar  
    20    12    25 1   
    21    13    14 1   
    22    13    15 ar  
    23    14    26 1   
    24    14    27 1   
    25    16    17 1   
    26    17    18 1   
    27    17    19 1   
    28    17    28 1   
    29    18    29 1   
    30    18    30 1   
    31    18    31 1   
    32    19    20 1   
    33    19    32 1   
    34    19    33 1   
    35    20    34 1   
    36    20    35 1   
    37    20    36 1   
@<TRIPOS>SUBSTRUCTURE
     1 RDS         1 TEMP              0 ****  ****    0 ROOT
