@<TRIPOS>MOLECULE
molecule
   38    39     1     0     0
SMALL
bcc


@<TRIPOS>ATOM
      1 CAA          0.0000     0.0000     0.0000 c3         1 RDT       0.123700
      2 CAB          5.6040    -0.0060     0.3110 c3         1 RDT       0.123700
      3 CAC          4.6680     1.4210     5.1990 c3         1 RDT      -0.095100
      4 NAD          2.9730    -2.7650     6.8840 nz         1 RDT      -0.816500
      5 OAE          2.6760    -0.8780     8.4450 o          1 RDT      -0.531300
      6 OAF          4.8990    -1.3080     7.3880 o          1 RDT      -0.531300
      7 CAG          1.2970    -0.0020     2.3740 ca         1 RDT      -0.190000
      8 CAH          4.0510     0.0030     2.5270 ca         1 RDT      -0.188000
      9 CAI          1.0360    -0.0170     4.8370 c3         1 RDT      -0.050100
     10 CAJ          1.7960     0.4760     6.0670 c3         1 RDT       0.219800
     11 OAK          1.4290     0.0000     0.0000 os         1 RDT      -0.296900
     12 OAL          4.1840    -0.0070     0.1520 os         1 RDT      -0.295900
     13 CAM          1.9180     0.0000     3.6170 ca         1 RDT      -0.090300
     14 CAN          2.0470    -0.0020     1.2120 ca         1 RDT       0.146100
     15 CAO          3.4360    -0.0010     1.2880 ca         1 RDT       0.141100
     16 CAP          3.2940     0.0100     3.6910 ca         1 RDT      -0.128300
     17 CAQ          4.0310     0.0430     5.0060 c3         1 RDT       0.287800
     18 NAR          3.0940    -0.2190     6.1040 n3         1 RDT      -0.784500
     19 SAS          3.4800    -1.2550     7.3370 s6         1 RDT       1.345800
     20 HAA         -0.3610    -0.8850     0.5100 h1         1 RDT       0.048700
     21 HAAA        -0.3610     0.8840     0.5120 h1         1 RDT       0.048700
     22 HAAB        -0.3610     0.0010    -1.0210 h1         1 RDT       0.048700
     23 HAB          5.9130     0.9140     0.7940 h1         1 RDT       0.048033
     24 HABA         6.0760    -0.0790    -0.6620 h1         1 RDT       0.048033
     25 HABB         5.9000    -0.8510     0.9200 h1         1 RDT       0.048033
     26 HAC          4.6550     1.6810     6.2510 hc         1 RDT       0.062367
     27 HACA         5.6910     1.3980     4.8450 hc         1 RDT       0.062367
     28 HACB         4.1080     2.1590     4.6380 hc         1 RDT       0.062367
     29 HNAD         3.4080    -3.0180     6.0190 hn         1 RDT       0.490800
     30 HNAA         1.9790    -2.7630     6.7700 hn         1 RDT       0.490800
     31 HAG          0.2160    -0.0050     2.3150 ha         1 RDT       0.152000
     32 HAH          5.1330    -0.0040     2.5900 ha         1 RDT       0.150000
     33 HAI          0.6940    -1.0300     5.0140 hc         1 RDT       0.057700
     34 HAIA         0.1820     0.6270     4.6660 hc         1 RDT       0.057700
     35 HAJ          1.9680     1.5420     5.9740 h1         1 RDT       0.089200
     36 HAJA         1.2330     0.2230     6.9570 h1         1 RDT       0.089200
     37 HAQ          4.8020    -0.7180     5.0040 h1         1 RDT       0.065700
     38 HAD3         3.2270    -3.4280     7.5900 hn         1 RDT       0.490800
@<TRIPOS>BOND
     1     1    11 1
     2     2    12 1
     3     3    17 1
     4     4    19 1
     5     5    19 2
     6     6    19 2
     7     7    13 ar
     8     7    14 ar
     9     8    15 ar
    10     8    16 ar
    11     9    10 1
    12     9    13 1
    13    10    18 1
    14    11    14 1
    15    12    15 1
    16    13    16 ar
    17    14    15 ar
    18    16    17 1
    19    17    18 1
    20    18    19 1
    21     1    20 1
    22     1    21 1
    23     1    22 1
    24     2    23 1
    25     2    24 1
    26     2    25 1
    27     3    26 1
    28     3    27 1
    29     3    28 1
    30     4    29 1
    31     4    30 1
    32     7    31 1
    33     8    32 1
    34     9    33 1
    35     9    34 1
    36    10    35 1
    37    10    36 1
    38    17    37 1
    39    38     4 1
@<TRIPOS>SUBSTRUCTURE
     1 RDT         1 TEMP              0 ****  ****    0 ROOT
