@<TRIPOS>MOLECULE
molecule
   42    41     1     0     0
SMALL
bcc


@<TRIPOS>ATOM
      1 N2           0.0000     0.0000     0.0000 nz         1 RE1      -0.799600
      2 C4           1.4830     0.0000     0.0000 c3         1 RE1      -0.015200
      3 C5           2.0340     0.0000     1.4030 c          1 RE1       0.627100
      4 N3           3.4190     0.0010     1.4040 ns         1 RE1      -0.479900
      5 C6           4.1860     0.0030     2.6310 c3         1 RE1      -0.040300
      6 C7           4.3720    -1.4340     3.1390 c3         1 RE1      -0.068400
      7 C8           5.2630    -2.3030     2.2400 c3         1 RE1      -0.079400
      8 C9           5.3670    -3.7330     2.7840 c3         1 RE1      -0.066400
      9 C10          6.2810    -4.6210     1.9410 c3         1 RE1      -0.170400
     10 C11          6.3800    -6.0200     2.5150 c          1 RE1       0.650100
     11 N4           7.2020    -6.8500     1.7710 ns         1 RE1      -0.526900
     12 C12          7.4760    -8.2280     2.1460 c3         1 RE1      -0.056500
     13 P1           7.7110    -9.1190     0.5670 p5         1 RE1       1.108700
     14 O3           1.3250    -0.0000     2.4070 o          1 RE1      -0.635100
     15 C13          5.4870     0.8220     2.5370 c          1 RE1       0.924600
     16 O4           6.3990     0.4860     3.3460 o          1 RE1      -0.818800
     17 O5           5.5090     1.7190     1.6460 o          1 RE1      -0.818800
     18 O6           5.7970    -6.3360     3.5500 o          1 RE1      -0.661100
     19 C14          8.6750    -8.3040     3.0800 c3         1 RE1      -0.062100
     20 O7           6.3670    -9.2760    -0.1060 o          1 RE1      -0.863500
     21 O8           8.8990    -8.5020    -0.1370 o          1 RE1      -0.863500
     22 H1          -0.3340     0.8240     0.4610 hn         1 RE1       0.408467
     23 H2          -0.3340    -0.8110     0.4830 hn         1 RE1       0.408467
     24 H3          -0.3340    -0.0130    -0.9440 hn         1 RE1       0.408467
     25 H4           1.8370    -0.8820    -0.5190 hx         1 RE1       0.103700
     26 H5           1.8370     0.8820    -0.5190 hx         1 RE1       0.103700
     27 H6           3.9040     0.0000     0.5290 hn         1 RE1       0.327500
     28 H7           3.5720     0.5040     3.3690 h1         1 RE1       0.050700
     29 H8           4.8140    -1.3950     4.1270 hc         1 RE1       0.041200
     30 H9           3.3980    -1.9010     3.2140 hc         1 RE1       0.041200
     31 H10          6.2540    -1.8670     2.1950 hc         1 RE1       0.036700
     32 H11          4.8410    -2.3310     1.2430 hc         1 RE1       0.036700
     33 H12          4.3760    -4.1710     2.8050 hc         1 RE1       0.042700
     34 H13          5.7530    -3.6950     3.7950 hc         1 RE1       0.042700
     35 H14          7.2700    -4.1810     1.9090 hc         1 RE1       0.048200
     36 H15          5.8860    -4.6790     0.9340 hc         1 RE1       0.048200
     37 H16          7.6270    -6.4860     0.9410 hn         1 RE1       0.318500
     38 H17          6.6090    -8.6340     2.6530 h1         1 RE1       0.061700
     39 H18          8.4320    -7.8230     4.0190 hc         1 RE1       0.016367
     40 H19          9.5200    -7.8010     2.6240 hc         1 RE1       0.016367
     41 H20          8.9270    -9.3420     3.2600 hc         1 RE1       0.016367
     42 O9           8.1220   -10.5880     1.1470 o          1 RE1      -0.863500
@<TRIPOS>BOND
     1     1     2 1
     2     1    22 1
     3     1    23 1
     4     1    24 1
     5     2     3 1
     6     2    25 1
     7     2    26 1
     8     3     4 1
     9     3    14 2
    10     4     5 1
    11     4    27 1
    12     5     6 1
    13     5    15 1
    14     5    28 1
    15     6     7 1
    16     6    29 1
    17     6    30 1
    18     7     8 1
    19     7    31 1
    20     7    32 1
    21     8     9 1
    22     8    33 1
    23     8    34 1
    24     9    10 1
    25     9    35 1
    26     9    36 1
    27    10    11 1
    28    10    18 2
    29    11    12 1
    30    11    37 1
    31    12    13 1
    32    12    19 1
    33    12    38 1
    34    13    20 1
    35    13    21 1
    36    15    16 1
    37    15    17 1
    38    19    39 1
    39    19    40 1
    40    19    41 1
    41    13    42 1
@<TRIPOS>SUBSTRUCTURE
     1 RE1         1 TEMP              0 ****  ****    0 ROOT
