@<TRIPOS>MOLECULE
RE2
   31    31     1     0     0
SMALL
bcc


@<TRIPOS>ATOM
      1 C2          0.6590    0.8190    0.2750 ce        1 RE2      0.266400
      2 C3          1.5950    0.0050   -0.2700 cf        1 RE2     -0.224000
      3 C4          2.2990   -1.0810    0.3830 cf        1 RE2      0.144100
      4 C8         -2.0520    1.5410    4.2080 c3        1 RE2     -0.027100
      5 C5          2.0310   -1.6530    1.5700 c2        1 RE2     -0.334000
      6 C6         -0.2470    0.8100    2.7190 c1        1 RE2     -0.069100
      7 C1          0.1740    0.8020    1.5970 cg        1 RE2     -0.169300
      8 O17         3.3450   -1.5150   -0.4220 oh        1 RE2     -0.519100
      9 O16         0.0560    1.8170   -0.4720 oh        1 RE2     -0.495100
     10 C9         -2.5110    1.5490    5.6230 ca        1 RE2     -0.122300
     11 C14        -1.9310    2.4280    6.5460 ca        1 RE2     -0.089500
     12 C13        -2.3580    2.4510    7.8700 ca        1 RE2     -0.183000
     13 C12        -3.3820    1.5830    8.2750 ca        1 RE2      0.124100
     14 O15        -3.8580    1.5460    9.5650 oh        1 RE2     -0.497100
     15 C11        -3.9760    0.6970    7.3620 ca        1 RE2     -0.183000
     16 C10        -3.5340    0.6890    6.0430 ca        1 RE2     -0.089500
     17 H3          1.8920    0.1600   -1.3240 ha        1 RE2      0.149000
     18 H8         -1.9250    2.5960    3.8460 hc        1 RE2      0.058200
     19 H8A        -2.8220    1.0540    3.5530 hc        1 RE2      0.058200
     20 H7          0.0400    1.2740    4.7410 hc        1 RE2      0.069200
     21 H7A        -0.8570   -0.2680    4.4090 hc        1 RE2      0.069200
     22 H5          2.6280   -2.4820    1.9650 ha        1 RE2      0.127500
     23 H1          1.2000   -1.3210    2.2010 ha        1 RE2      0.127500
     24 HO17        3.7900   -2.2440    0.0320 ho        1 RE2      0.416000
     25 HO16        0.4280    1.7930   -1.3670 ho        1 RE2      0.422000
     26 H14        -1.1300    3.1080    6.2200 ha        1 RE2      0.135000
     27 H13        -1.9000    3.1440    8.5900 ha        1 RE2      0.142500
     28 HO15       -3.3720    2.2050   10.0820 ho        1 RE2      0.419000
     29 H11        -4.7780    0.0260    7.6990 ha        1 RE2      0.142500
     30 H10        -3.9970   -0.0020    5.3220 ha        1 RE2      0.135000
     31 C7         -0.7280    0.7980    4.0670 c3        1 RE2     -0.006300
@<TRIPOS>BOND
     1    1    2 2   
     2    1    7 1   
     3    1    9 1   
     4    2    3 1   
     5    2   17 1   
     6    3    5 2   
     7    3    8 1   
     8    4   10 1   
     9    4   18 1   
    10    4   19 1   
    11    4   31 1   
    12    5   22 1   
    13    5   23 1   
    14    6    7 3   
    15    6   31 1   
    16    8   24 1   
    17    9   25 1   
    18   10   11 ar  
    19   10   16 ar  
    20   11   12 ar  
    21   11   26 1   
    22   12   13 ar  
    23   12   27 1   
    24   13   14 1   
    25   13   15 ar  
    26   14   28 1   
    27   15   16 ar  
    28   15   29 1   
    29   16   30 1   
    30   20   31 1   
    31   21   31 1   
@<TRIPOS>SUBSTRUCTURE
     1 RE2         1 TEMP              0 ****  ****    0 ROOT
