@<TRIPOS>MOLECULE
molecule
   31    32     1     0     0
SMALL
bcc


@<TRIPOS>ATOM
      1 C2           0.0000     0.0000     0.0000 ca         1 RE2       0.121100
      2 C3           1.3860     0.0000     0.0000 ca         1 RE2      -0.183000
      3 C4           2.0780     0.0000     1.2020 ca         1 RE2       0.121100
      4 C8          -1.0110     1.4420     4.1450 c3         1 RE2      -0.031100
      5 C5           1.3800     0.0000     2.4020 ca         1 RE2      -0.160000
      6 C6          -0.0020    -0.0010     2.3990 ca         1 RE2      -0.058300
      7 C1          -0.6930     0.0000     1.2030 ca         1 RE2      -0.160000
      8 O17          3.4360    -0.0010     1.2040 oh         1 RE2      -0.521100
      9 O16         -0.6800     0.0060    -1.1760 oh         1 RE2      -0.521100
     10 C9          -1.7650     1.4410     5.4500 ca         1 RE2      -0.094300
     11 C14         -1.0740     1.4420     6.6470 ca         1 RE2      -0.113000
     12 C13         -1.7630     1.4400     7.8440 ca         1 RE2      -0.150000
     13 C12         -3.1510     1.4400     7.8450 ca         1 RE2       0.102100
     14 O15         -3.8300     1.4390     9.0210 oh         1 RE2      -0.522100
     15 C11         -3.8430     1.4400     6.6430 ca         1 RE2      -0.150000
     16 C10         -3.1480     1.4470     5.4480 ca         1 RE2      -0.113000
     17 H3           1.9290    -0.0000    -0.9380 ha         1 RE2       0.150000
     18 H8          -1.5970     1.9530     3.3900 hc         1 RE2       0.053200
     19 H8A         -0.0650     1.9530     4.2750 hc         1 RE2       0.053200
     20 H7          -0.1700    -0.5110     4.4590 hc         1 RE2       0.056200
     21 H7A         -1.7020    -0.5120     3.5740 hc         1 RE2       0.056200
     22 H5           1.9190    -0.0000     3.3410 ha         1 RE2       0.142000
     23 H1          -1.7760    -0.0000     1.2040 ha         1 RE2       0.142000
     24 HO17         3.7510     0.8880     1.2050 ho         1 RE2       0.422000
     25 HO16        -0.8390    -0.8820    -1.4520 ho         1 RE2       0.422000
     26 H14          0.0100     1.4410     6.6470 ha         1 RE2       0.133500
     27 H13         -1.2210     1.4400     8.7820 ha         1 RE2       0.140000
     28 HO15        -3.9880     2.3280     9.2940 ho         1 RE2       0.419000
     29 H11         -4.9260     1.4430     6.6400 ha         1 RE2       0.140000
     30 H10         -3.6870     1.4470     4.5080 ha         1 RE2       0.133500
     31 C7          -0.7550    -0.0010     3.7040 c3         1 RE2      -0.032100
@<TRIPOS>BOND
     1     2     1 ar
     2     9     1 1
     3     1     7 ar
     4     2     3 ar
     5     2    17 1
     6     8     3 1
     7     3     5 ar
     8    31     4 1
     9     4    10 1
    10     4    18 1
    11     4    19 1
    12     6    31 1
    13    31    20 1
    14    31    21 1
    15     5     6 ar
    16     5    22 1
    17     7     6 ar
    18     7    23 1
    19     8    24 1
    20     9    25 1
    21    16    10 ar
    22    10    11 ar
    23    11    12 ar
    24    11    26 1
    25    13    12 ar
    26    12    27 1
    27    15    13 ar
    28    13    14 1
    29    14    28 1
    30    16    15 ar
    31    15    29 1
    32    16    30 1
@<TRIPOS>SUBSTRUCTURE
     1 RE2         1 TEMP              0 ****  ****    0 ROOT
