@<TRIPOS>MOLECULE
RE8
   40    43     1     0     0
SMALL
bcc


@<TRIPOS>ATOM
      1 OB4          0.0000     0.0000     0.0000 o          1 RE8      -0.651867
      2 SB           1.5220     0.0000     0.0000 s6         1 RE8       1.024100
      3 OB2          1.9230     0.0000     1.3630 o          1 RE8      -0.651867
      4 OB3          1.9240    -0.9970    -0.9280 o          1 RE8      -0.651867
      5 C14          2.0440     1.5430    -0.6720 ca         1 RE8      -0.019500
      6 C13          2.4010     1.6210    -1.9830 ca         1 RE8      -0.066000
      7 C12          2.8190     2.8120    -2.5600 ca         1 RE8      -0.068000
      8 C15          2.0820     2.6830     0.1510 ca         1 RE8       0.038000
      9 C20          2.5020     3.9210    -0.3940 ca         1 RE8       0.026000
     10 C19          2.5420     5.0570     0.4210 ca         1 RE8      -0.111000
     11 C18          2.1760     4.9600     1.7310 ca         1 RE8      -0.154000
     12 C17          1.7630     3.7440     2.2700 ca         1 RE8      -0.203000
     13 C16          1.7110     2.6190     1.5050 ca         1 RE8       0.011000
     14 C11          2.8870     3.9780    -1.8040 ca         1 RE8       0.028400
     15 N2           3.2960     5.1480    -2.3670 ne         1 RE8      -0.094400
     16 N1           3.6320     5.1830    -3.6110 nf         1 RE8      -0.244400
     17 C1           4.0410     6.3500    -4.1720 ca         1 RE8       0.090400
     18 C10          4.4260     6.4080    -5.5820 ca         1 RE8       0.011000
     19 C9           4.3850     5.2710    -6.3970 ca         1 RE8      -0.069000
     20 C8           4.7520     5.3670    -7.7080 ca         1 RE8      -0.110000
     21 C7           5.1660     6.5820    -8.2460 ca         1 RE8      -0.111000
     22 C6           5.2170     7.7080    -7.4800 ca         1 RE8      -0.094000
     23 C5           4.8470     7.6460    -6.1270 ca         1 RE8      -0.059000
     24 C4           4.8860     8.7880    -5.3070 ca         1 RE8      -0.072000
     25 C3           4.5250     8.7170    -3.9980 ca         1 RE8      -0.166000
     26 C2           4.0990     7.5250    -3.4160 ca         1 RE8       0.113100
     27 OA1          3.7480     7.5000    -2.1050 oh         1 RE8      -0.440100
     28 H1           2.3570     0.7280    -2.5950 ha         1 RE8       0.132000
     29 H2           3.0940     2.8340    -3.6070 ha         1 RE8       0.110000
     30 H3           2.9070     6.0760     0.4540 ha         1 RE8       0.114000
     31 H4           2.1240     5.7980     2.4150 ha         1 RE8       0.083000
     32 H5           1.6320     3.8160     3.3430 ha         1 RE8       0.095000
     33 H6           0.9770     2.2420     2.2070 ha         1 RE8       0.156000
     34 H9           4.0650     4.3200    -5.9900 ha         1 RE8       0.128000
     35 H10          4.7200     4.4860    -8.3370 ha         1 RE8       0.099000
     36 H11          5.4520     6.6340    -9.2900 ha         1 RE8       0.094000
     37 H12          5.5410     8.6460    -7.9130 ha         1 RE8       0.098000
     38 H13          5.2120     9.7340    -5.7210 ha         1 RE8       0.097000
     39 H14          4.5620     9.6150    -3.3930 ha         1 RE8       0.101000
     40 H15          3.2720     8.2860    -1.8920 ho         1 RE8       0.387000
@<TRIPOS>BOND
     1     1     2 1   
     2     2     3 1   
     3     2     4 1   
     4     2     5 1   
     5     5     6 ar  
     6     5     8 ar  
     7     6     7 ar  
     8     6    28 1   
     9     7    14 ar  
    10     7    29 1   
    11     8     9 ar  
    12     8    13 ar  
    13     9    10 ar  
    14     9    14 ar  
    15    10    11 ar  
    16    10    30 1   
    17    11    12 ar  
    18    11    31 1   
    19    12    13 ar  
    20    12    32 1   
    21    13    33 1   
    22    14    15 1   
    23    15    16 2   
    24    16    17 1   
    25    17    18 ar  
    26    17    26 ar  
    27    18    19 ar  
    28    18    23 ar  
    29    19    20 ar  
    30    19    34 1   
    31    20    21 ar  
    32    20    35 1   
    33    21    22 ar  
    34    21    36 1   
    35    22    23 ar  
    36    22    37 1   
    37    23    24 ar  
    38    24    25 ar  
    39    24    38 1   
    40    25    26 ar  
    41    25    39 1   
    42    26    27 1   
    43    27    40 1   
@<TRIPOS>SUBSTRUCTURE
     1 RE8         1 TEMP              0 ****  ****    0 ROOT
