@<TRIPOS>MOLECULE
molecule
   40    43     1     0     0
SMALL
bcc


@<TRIPOS>ATOM
      1 OB4          0.0000     0.0000     0.0000 o          1 RE8      -0.701867
      2 SB           1.5220     0.0000     0.0000 s6         1 RE8       1.316100
      3 OB2          1.9230     0.0000     1.3630 o          1 RE8      -0.701867
      4 OB3          1.9240    -0.9970    -0.9280 o          1 RE8      -0.701867
      5 C14          2.0440     1.5430    -0.6720 ca         1 RE8      -0.181500
      6 C13          2.4010     1.6210    -1.9830 ca         1 RE8      -0.085000
      7 C12          2.8190     2.8120    -2.5600 ca         1 RE8      -0.091000
      8 C15          2.0820     2.6830     0.1510 ca         1 RE8       0.040000
      9 C20          2.5020     3.9210    -0.3940 ca         1 RE8       0.030000
     10 C19          2.5420     5.0570     0.4210 ca         1 RE8      -0.127000
     11 C18          2.1760     4.9600     1.7310 ca         1 RE8      -0.173000
     12 C17          1.7630     3.7440     2.2700 ca         1 RE8      -0.203000
     13 C16          1.7110     2.6190     1.5050 ca         1 RE8      -0.048000
     14 C11          2.8870     3.9780    -1.8040 ca         1 RE8       0.079400
     15 N2           3.2960     5.1480    -2.3670 ne         1 RE8      -0.160400
     16 N1           3.6320     5.1830    -3.6110 nf         1 RE8      -0.277400
     17 C1           4.0410     6.3500    -4.1720 ca         1 RE8       0.123400
     18 C10          4.4260     6.4080    -5.5820 ca         1 RE8       0.012000
     19 C9           4.3850     5.2710    -6.3970 ca         1 RE8      -0.093000
     20 C8           4.7520     5.3670    -7.7080 ca         1 RE8      -0.135000
     21 C7           5.1660     6.5820    -8.2460 ca         1 RE8      -0.134000
     22 C6           5.2170     7.7080    -7.4800 ca         1 RE8      -0.120000
     23 C5           4.8470     7.6460    -6.1270 ca         1 RE8      -0.055000
     24 C4           4.8860     8.7880    -5.3070 ca         1 RE8      -0.099000
     25 C3           4.5250     8.7170    -3.9980 ca         1 RE8      -0.187000
     26 C2           4.0990     7.5250    -3.4160 ca         1 RE8       0.105100
     27 OA1          3.7480     7.5000    -2.1050 oh         1 RE8      -0.459100
     28 H1           2.3570     0.7280    -2.5950 ha         1 RE8       0.157000
     29 H2           3.0940     2.8340    -3.6070 ha         1 RE8       0.139000
     30 H3           2.9070     6.0760     0.4540 ha         1 RE8       0.138000
     31 H4           2.1240     5.7980     2.4150 ha         1 RE8       0.105000
     32 H5           1.6320     3.8160     3.3430 ha         1 RE8       0.116000
     33 H6           0.9770     2.2420     2.2070 ha         1 RE8       0.187000
     34 H9           4.0650     4.3200    -5.9900 ha         1 RE8       0.158000
     35 H10          4.7200     4.4860    -8.3370 ha         1 RE8       0.127000
     36 H11          5.4520     6.6340    -9.2900 ha         1 RE8       0.120000
     37 H12          5.5410     8.6460    -7.9130 ha         1 RE8       0.124000
     38 H13          5.2120     9.7340    -5.7210 ha         1 RE8       0.125000
     39 H14          4.5620     9.6150    -3.3930 ha         1 RE8       0.124000
     40 H15          3.2720     8.2860    -1.8920 ho         1 RE8       0.408000
@<TRIPOS>BOND
     1    11    12 ar
     2    11    10 ar
     3    12    13 ar
     4    10     9 ar
     5    13     8 ar
     6    27    26 1
     7     9     8 ar
     8     9    14 ar
     9     8     5 ar
    10    25    26 ar
    11    25    24 ar
    12    26    17 ar
    13     3     2 1
    14    15    14 1
    15    15    16 2
    16    14     7 ar
    17     5     2 1
    18     5     6 ar
    19    24    23 ar
    20     4     2 1
    21    17    16 1
    22    17    18 ar
    23     2     1 1
    24     7     6 ar
    25    23    18 ar
    26    23    22 ar
    27    18    19 ar
    28    22    21 ar
    29    19    20 ar
    30    21    20 ar
    31     6    28 1
    32     7    29 1
    33    10    30 1
    34    11    31 1
    35    12    32 1
    36    13    33 1
    37    19    34 1
    38    20    35 1
    39    21    36 1
    40    22    37 1
    41    24    38 1
    42    25    39 1
    43    27    40 1
@<TRIPOS>SUBSTRUCTURE
     1 RE8         1 TEMP              0 ****  ****    0 ROOT
