@<TRIPOS>MOLECULE
RE9
   49    50     1     0     0
SMALL
bcc


@<TRIPOS>ATOM
      1 C1          0.4050   -0.6280    0.7390 c3        1 RE9     -0.001800
      2 C2          1.8830   -0.2300    0.8780 c3        1 RE9     -0.068400
      3 C3          2.1270    0.7730    1.9870 c3        1 RE9     -0.073400
      4 C4          1.3560    2.0640    1.7680 c3        1 RE9     -0.023200
      5 C5         -0.0250    1.7830    1.3320 ce        1 RE9     -0.102200
      6 C6         -1.1170    2.7640    1.3370 ce        1 RE9     -0.059200
      7 C7         -2.3640    2.0730    0.7950 c3        1 RE9     -0.014800
      8 C8         -1.9050    0.6180    0.4990 c3        1 RE9     -0.041200
      9 C9         -0.4520    0.5830    0.8630 c2        1 RE9     -0.102400
     10 C10        -3.4750    2.0990    1.8460 c3        1 RE9     -0.017200
     11 C11        -4.7110    1.4150    1.4070 c2        1 RE9     -0.251200
     12 C12        -5.9550    1.6120    1.8620 ce        1 RE9     -0.067000
     13 C13        -6.4260    2.5180    2.8960 ce        1 RE9     -0.153200
     14 C14        -7.6970    2.9650    2.9020 cf        1 RE9     -0.154200
     15 C15        -8.7760    2.6680    1.8850 c         1 RE9      0.893800
     16 C16         0.0340   -1.6340    1.8240 c3        1 RE9     -0.082600
     17 C17         0.2030   -1.2820   -0.6250 c3        1 RE9     -0.082600
     18 C18        -1.0440    4.0330    1.7380 c2        1 RE9     -0.229000
     19 C19        -2.8260    2.7560   -0.4790 c3        1 RE9     -0.078100
     20 C20        -5.4920    2.9240    3.9790 c3        1 RE9     -0.041900
     21 O1         -9.5130    3.6380    1.5420 o         1 RE9     -0.835800
     22 O2         -8.9210    1.4890    1.4500 o         1 RE9     -0.835800
     23 H21         2.2290    0.2100   -0.0940 hc        1 RE9      0.036200
     24 H22         2.4900   -1.1530    1.0680 hc        1 RE9      0.036200
     25 H31         3.2230    1.0000    2.0450 hc        1 RE9      0.036200
     26 H32         1.8250    0.3230    2.9700 hc        1 RE9      0.036200
     27 H41         1.8690    2.6860    0.9850 hc        1 RE9      0.045200
     28 H42         1.3480    2.6650    2.7160 hc        1 RE9      0.045200
     29 H81        -2.0530    0.3610   -0.5800 hc        1 RE9      0.058700
     30 H82        -2.4840   -0.1170    1.1140 hc        1 RE9      0.058700
     31 H101       -3.0880    1.6110    2.7830 hc        1 RE9      0.042700
     32 H102       -3.6940    3.1730    2.0950 hc        1 RE9      0.042700
     33 H11        -4.5620    0.6660    0.6090 ha        1 RE9      0.101000
     34 H12        -6.7880    1.0340    1.3970 ha        1 RE9      0.177000
     35 H14        -8.0320    3.6490    3.7000 ha        1 RE9      0.099000
     36 H161       -1.0480   -1.9010    1.7460 hc        1 RE9      0.035367
     37 H162        0.2200   -1.2030    2.8360 hc        1 RE9      0.035367
     38 H163        0.6420   -2.5630    1.7100 hc        1 RE9      0.035367
     39 H171        0.9090   -2.1370   -0.7450 hc        1 RE9      0.035367
     40 H172       -0.8430   -1.6610   -0.7180 hc        1 RE9      0.035367
     41 H173        0.3880   -0.5440   -1.4410 hc        1 RE9      0.035367
     42 H181       -1.9120    4.7030    1.7110 ha        1 RE9      0.112000
     43 H182       -0.1140    4.4730    2.1180 ha        1 RE9      0.112000
     44 H191       -3.7370    2.2480   -0.8770 hc        1 RE9      0.037367
     45 H192       -3.0790    3.8240   -0.2700 hc        1 RE9      0.037367
     46 H193       -2.0250    2.7240   -1.2560 hc        1 RE9      0.037367
     47 H201       -6.0480    3.1390    4.9250 hc        1 RE9      0.019367
     48 H202       -4.7480    2.1160    4.1880 hc        1 RE9      0.019367
     49 H203       -4.9340    3.8500    3.6930 hc        1 RE9      0.019367
@<TRIPOS>BOND
     1    1    2 1   
     2    1    9 1   
     3    1   16 1   
     4    1   17 1   
     5    2    3 1   
     6    2   23 1   
     7    2   24 1   
     8    3    4 1   
     9    3   25 1   
    10    3   26 1   
    11    4    5 1   
    12    4   27 1   
    13    4   28 1   
    14    5    6 1   
    15    5    9 2   
    16    6    7 1   
    17    6   18 2   
    18    7    8 1   
    19    7   10 1   
    20    7   19 1   
    21    8    9 1   
    22    8   29 1   
    23    8   30 1   
    24   10   11 1   
    25   10   31 1   
    26   10   32 1   
    27   11   12 2   
    28   11   33 1   
    29   12   13 1   
    30   12   34 1   
    31   13   14 2   
    32   13   20 1   
    33   14   15 1   
    34   14   35 1   
    35   15   21 1   
    36   15   22 1   
    37   16   36 1   
    38   16   37 1   
    39   16   38 1   
    40   17   39 1   
    41   17   40 1   
    42   17   41 1   
    43   18   42 1   
    44   18   43 1   
    45   19   44 1   
    46   19   45 1   
    47   19   46 1   
    48   20   47 1   
    49   20   48 1   
    50   20   49 1   
@<TRIPOS>SUBSTRUCTURE
     1 RE9         1 TEMP              0 ****  ****    0 ROOT
