@<TRIPOS>MOLECULE
molecule
   49    50     1     0     0
SMALL
bcc


@<TRIPOS>ATOM
      1 C1           0.0000     0.0000     0.0000 c3         1 RE9      -0.010800
      2 C2           1.5320     0.0000     0.0000 c3         1 RE9      -0.069400
      3 C3           2.0320     0.0000     1.4470 c3         1 RE9      -0.081400
      4 C4           1.7240     1.3560     2.0860 c3         1 RE9      -0.022200
      5 C5           0.2660     1.6900     1.8420 ce         1 RE9      -0.119200
      6 C6          -0.4890     2.7130     2.5870 ce         1 RE9      -0.057200
      7 C7          -1.8980     2.7270     2.0400 c3         1 RE9      -0.025800
      8 C8          -1.8860     1.6520     0.9400 c3         1 RE9      -0.035200
      9 C9          -0.4870     1.0930     0.9260 c2         1 RE9      -0.094400
     10 C10         -2.9020     2.3630     3.1340 c3         1 RE9      -0.020200
     11 C11         -4.2970     2.3840     2.5620 c2         1 RE9      -0.241200
     12 C12         -5.0740     1.3040     2.6600 ce         1 RE9      -0.088000
     13 C13         -6.4280     1.3240     2.1060 ce         1 RE9      -0.139200
     14 C14         -7.2160     0.2290     2.2060 cf         1 RE9      -0.148200
     15 C15         -8.3620     0.1030     1.3790 c          1 RE9       0.863800
     16 C16         -0.5120    -1.3550     0.4900 c3         1 RE9      -0.080100
     17 C17         -0.5130     0.2620    -1.4170 c3         1 RE9      -0.080100
     18 C18         -0.0170     3.4790     3.5640 c2         1 RE9      -0.235000
     19 C19         -2.2280     4.0980     1.4470 c3         1 RE9      -0.072100
     20 C20         -6.9440     2.5640     1.4240 c3         1 RE9      -0.027900
     21 O1          -8.5680     0.9140     0.4980 o          1 RE9      -0.844800
     22 O2          -9.2230    -0.9180     1.5720 o          1 RE9      -0.844800
     23 H21          1.8930    -0.8870    -0.5070 hc         1 RE9       0.040200
     24 H22          1.8930     0.8870    -0.5070 hc         1 RE9       0.040200
     25 H31          3.1020    -0.1700     1.4580 hc         1 RE9       0.040200
     26 H32          1.5300    -0.7830     2.0020 hc         1 RE9       0.040200
     27 H41          2.3510     2.1180     1.6380 hc         1 RE9       0.044200
     28 H42          1.9110     1.3040     3.1520 hc         1 RE9       0.044200
     29 H81         -2.1180     2.1000    -0.0200 hc         1 RE9       0.066200
     30 H82         -2.5980     0.8700     1.1750 hc         1 RE9       0.066200
     31 H101        -2.8330     3.0810     3.9420 hc         1 RE9       0.040200
     32 H102        -2.6810     1.3720     3.5110 hc         1 RE9       0.040200
     33 H11         -4.6680     3.2750     2.0710 ha         1 RE9       0.133000
     34 H12         -4.7030     0.4120     3.1510 ha         1 RE9       0.110000
     35 H14         -6.8350    -0.6540     2.7040 ha         1 RE9       0.101000
     36 H161        -0.5280    -1.3650     1.5740 hc         1 RE9       0.037533
     37 H162         0.1420    -2.1400     0.1310 hc         1 RE9       0.037533
     38 H163        -1.5150    -1.5200     0.1140 hc         1 RE9       0.037533
     39 H171        -0.2560     1.2720    -1.7130 hc         1 RE9       0.037533
     40 H172        -1.5890     0.1410    -1.4400 hc         1 RE9       0.037533
     41 H173        -0.0560    -0.4420    -2.1030 hc         1 RE9       0.037533
     42 H181         1.0150     3.3840     3.8770 ha         1 RE9       0.111500
     43 H182        -0.6670     4.1950     4.0530 ha         1 RE9       0.111500
     44 H191        -1.3390     4.5180     0.9910 hc         1 RE9       0.035700
     45 H192        -2.5770     4.7570     2.2320 hc         1 RE9       0.035700
     46 H193        -3.0020     3.9900     0.6960 hc         1 RE9       0.035700
     47 H201        -8.0250     2.5850     1.4830 hc         1 RE9       0.037033
     48 H202        -6.6390     2.5580     0.3850 hc         1 RE9       0.037033
     49 H203        -6.5390     3.4410     1.9150 hc         1 RE9       0.037033
@<TRIPOS>BOND
     1     1     2 1
     2     1     9 1
     3     1    16 1
     4     1    17 1
     5     2     3 1
     6     2    23 1
     7     2    24 1
     8     3     4 1
     9     3    25 1
    10     3    26 1
    11     4     5 1
    12     4    27 1
    13     4    28 1
    14     5     6 1
    15     5     9 2
    16     6     7 1
    17     6    18 2
    18     7     8 1
    19     7    10 1
    20     7    19 1
    21     8     9 1
    22     8    29 1
    23     8    30 1
    24    10    11 1
    25    10    31 1
    26    10    32 1
    27    11    12 2
    28    11    33 1
    29    12    13 1
    30    12    34 1
    31    13    14 2
    32    13    20 1
    33    14    15 1
    34    14    35 1
    35    15    21 1
    36    15    22 1
    37    16    36 1
    38    16    37 1
    39    16    38 1
    40    17    39 1
    41    17    40 1
    42    17    41 1
    43    18    42 1
    44    18    43 1
    45    19    44 1
    46    19    45 1
    47    19    46 1
    48    20    47 1
    49    20    48 1
    50    20    49 1
@<TRIPOS>SUBSTRUCTURE
     1 RE9         1 TEMP              0 ****  ****    0 ROOT
