@<TRIPOS>MOLECULE
molecule
   49    49     1     0     0
SMALL
bcc


@<TRIPOS>ATOM
      1 C1           0.0000     0.0000     0.0000 c3         1 REA      -0.016800
      2 C2           1.5300     0.0000     0.0000 c3         1 REA      -0.068400
      3 C3           2.0180     0.0000     1.4530 c3         1 REA      -0.081400
      4 C4           1.6630     1.3470     2.0860 c3         1 REA      -0.031200
      5 C5           0.2180     1.6710     1.8350 c2         1 REA      -0.136400
      6 C6          -0.5160     1.0780     0.9090 ce         1 REA      -0.067200
      7 C7          -1.8680     1.4820     0.7670 ce         1 REA      -0.187000
      8 C8          -2.1630     2.7780     0.4840 cf         1 REA      -0.083000
      9 C9          -3.4980     3.1640     0.2690 cf         1 REA      -0.168200
     10 C10         -3.7950     4.4650    -0.0150 ce         1 REA      -0.063000
     11 C11         -5.1260     4.8510    -0.2300 ce         1 REA      -0.236000
     12 C12         -5.4220     6.1530    -0.5150 cf         1 REA      -0.034000
     13 C13         -6.7540     6.5380    -0.7290 cf         1 REA      -0.159200
     14 C14         -7.0510     7.8390    -1.0140 ce         1 REA      -0.110200
     15 C15         -8.3950     8.2570    -1.0790 c          1 REA       0.853800
     16 C16         -0.5080    -1.3590     0.4860 c3         1 REA      -0.077600
     17 C17         -0.5080     0.2500    -1.4220 c3         1 REA      -0.077600
     18 C18         -0.4300     2.7320     2.6860 c3         1 REA      -0.050900
     19 C19         -4.6010     2.1410     0.3520 c3         1 REA      -0.041900
     20 C20         -7.8570     5.5150    -0.6460 c3         1 REA      -0.025900
     21 O1          -9.2870     7.4880    -0.7730 o          1 REA      -0.836300
     22 O2          -8.6920     9.5120    -1.4810 o          1 REA      -0.836300
     23 H21          1.8930     0.8870    -0.5050 hc         1 REA       0.040200
     24 H22          1.8930    -0.8870    -0.5050 hc         1 REA       0.040200
     25 H31          3.0920    -0.1400     1.4760 hc         1 REA       0.038200
     26 H32          1.5300    -0.7980     2.0000 hc         1 REA       0.038200
     27 H41          1.8370     1.2970     3.1540 hc         1 REA       0.042700
     28 H42          2.2840     2.1210     1.6520 hc         1 REA       0.042700
     29 H7          -2.6610     0.7470     0.8260 ha         1 REA       0.134000
     30 H8          -1.3660     3.5020     0.3680 ha         1 REA       0.122000
     31 H10         -3.0020     5.2010    -0.0740 ha         1 REA       0.113000
     32 H11         -5.9190     4.1150    -0.1710 ha         1 REA       0.143000
     33 H12         -4.6290     6.8880    -0.5740 ha         1 REA       0.110000
     34 H14         -6.2550     8.5720    -1.0740 ha         1 REA       0.106000
     35 H161         0.1960    -2.1310     0.1990 hc         1 REA       0.034533
     36 H162        -0.6070    -1.3430     1.5640 hc         1 REA       0.034533
     37 H163        -1.4720    -1.5660     0.0370 hc         1 REA       0.034533
     38 H171        -0.2730     1.2660    -1.7160 hc         1 REA       0.034533
     39 H172        -1.5810     0.1040    -1.4520 hc         1 REA       0.034533
     40 H173        -0.0300    -0.4430    -2.1030 hc         1 REA       0.034533
     41 H181         0.1330     2.8530     3.6030 hc         1 REA       0.040700
     42 H182        -1.4450     2.4350     2.9230 hc         1 REA       0.040700
     43 H183        -0.4450     3.6700     2.1450 hc         1 REA       0.040700
     44 H191        -5.4250     2.5440     0.9280 hc         1 REA       0.037033
     45 H192        -4.9430     1.8980    -0.6470 hc         1 REA       0.037033
     46 H193        -4.2280     1.2460     0.8340 hc         1 REA       0.037033
     47 H201        -8.5930     5.7140    -1.4160 hc         1 REA       0.040033
     48 H202        -7.4430     4.5240    -0.7910 hc         1 REA       0.040033
     49 H203        -8.3290     5.5700     0.3270 hc         1 REA       0.040033
@<TRIPOS>BOND
     1     1     2 1
     2     1     6 1
     3     1    16 1
     4     1    17 1
     5     2     3 1
     6     2    23 1
     7     2    24 1
     8     3     4 1
     9     3    25 1
    10     3    26 1
    11     4     5 1
    12     4    27 1
    13     4    28 1
    14     5     6 2
    15     5    18 1
    16     6     7 1
    17     7     8 2
    18     7    29 1
    19     8     9 1
    20     8    30 1
    21     9    10 2
    22     9    19 1
    23    10    11 1
    24    10    31 1
    25    11    12 2
    26    11    32 1
    27    12    13 1
    28    12    33 1
    29    13    14 2
    30    13    20 1
    31    14    15 1
    32    14    34 1
    33    15    21 1
    34    15    22 1
    35    16    35 1
    36    16    36 1
    37    16    37 1
    38    17    38 1
    39    17    39 1
    40    17    40 1
    41    18    41 1
    42    18    42 1
    43    18    43 1
    44    19    44 1
    45    19    45 1
    46    19    46 1
    47    20    47 1
    48    20    48 1
    49    20    49 1
@<TRIPOS>SUBSTRUCTURE
     1 REA         1 TEMP              0 ****  ****    0 ROOT
