@<TRIPOS>MOLECULE
REA
   49    48     1     0     0
SMALL
bcc


@<TRIPOS>ATOM
      1 C1         -0.6390   -0.7650   -0.3180 c3        1 REA     -0.007800
      2 C2          0.2070    0.4940   -0.1070 c3        1 REA     -0.069400
      3 C3          0.1880    0.9640    1.3280 c3        1 REA     -0.074400
      4 C4          0.7410   -0.1040    2.2460 c3        1 REA     -0.034200
      5 C5          0.1960   -1.4580    1.9490 c2        1 REA     -0.131400
      6 C6         -0.4400   -1.7630    0.8000 ce        1 REA     -0.042200
      7 C7         -0.8960   -3.1180    0.4970 ce        1 REA     -0.184000
      8 C8         -2.0470   -3.7320    0.8030 cf        1 REA     -0.064000
      9 C9         -3.1850   -3.2570    1.5660 cf        1 REA     -0.164300
     10 C10        -4.3660   -3.8380    1.4130 c1        1 REA     -0.017900
     11 C11        -5.4900   -4.3790    1.2660 c1        1 REA     -0.131900
     12 C12        -6.6520   -4.9740    1.0820 ce        1 REA     -0.013100
     13 C13        -7.8770   -4.6230    1.7720 ce        1 REA     -0.157200
     14 C14        -9.0310   -5.2880    1.5640 cf        1 REA     -0.129200
     15 C15        -9.2710   -6.4850    0.6680 c         1 REA      0.888800
     16 C16        -0.2210   -1.3970   -1.6440 c3        1 REA     -0.084600
     17 C17        -2.1130   -0.3820   -0.4100 c3        1 REA     -0.084600
     18 C18         0.4420   -2.4520    3.0230 c3        1 REA     -0.052900
     19 C19        -3.0140   -2.1530    2.5410 c3        1 REA     -0.038900
     20 C20        -7.8060   -3.4880    2.7310 c3        1 REA     -0.049900
     21 O1        -10.2820   -7.1910    0.9460 o         1 REA     -0.824800
     22 O2         -8.4920   -6.7240   -0.2980 o         1 REA     -0.824800
     23 H21        -0.1770    1.3060   -0.7780 hc        1 REA      0.035200
     24 H22         1.2660    0.2790   -0.4080 hc        1 REA      0.035200
     25 H31         0.7970    1.9000    1.4280 hc        1 REA      0.036700
     26 H32        -0.8630    1.2140    1.6320 hc        1 REA      0.036700
     27 H41         0.5140    0.1660    3.3120 hc        1 REA      0.038200
     28 H42         1.8610   -0.1420    2.1470 hc        1 REA      0.038200
     29 H7         -0.1520   -3.6790   -0.1040 ha        1 REA      0.113000
     30 H8         -2.1840   -4.7620    0.4110 ha        1 REA      0.118000
     31 H10        -5.8490   -1.1510    4.2910 ha        1 REA      0.000000
     32 H11        -6.1870   -1.6230    3.9410 ha        1 REA      0.000000
     33 H12        -6.7430   -5.8060    0.3410 ha        1 REA      0.211000
     34 H14        -9.9380   -4.9800    2.1140 ha        1 REA      0.108000
     35 H161       -0.2460   -0.6290   -2.4550 hc        1 REA      0.037200
     36 H162       -0.9180   -2.2250   -1.9150 hc        1 REA      0.037200
     37 H163        0.8140   -1.8080   -1.5720 hc        1 REA      0.037200
     38 H171       -2.3070    0.1680   -1.3620 hc        1 REA      0.037200
     39 H172       -2.4040    0.2750    0.4440 hc        1 REA      0.037200
     40 H173       -2.7500   -1.3010   -0.3850 hc        1 REA      0.037200
     41 H181        0.0310   -3.4570    2.7570 hc        1 REA      0.038700
     42 H182       -0.0400   -2.1180    3.9760 hc        1 REA      0.038700
     43 H183        1.5410   -2.5520    3.2050 hc        1 REA      0.038700
     44 H191       -2.2230   -2.4200    3.2870 hc        1 REA      0.034033
     45 H192       -3.9670   -1.9440    3.0880 hc        1 REA      0.034033
     46 H193       -2.6900   -1.2180    2.0160 hc        1 REA      0.034033
     47 H201       -7.0820   -3.7200    3.5520 hc        1 REA      0.026700
     48 H202       -8.8030   -3.2780    3.1900 hc        1 REA      0.026700
     49 H203       -7.4540   -2.5620    2.2120 hc        1 REA      0.026700
@<TRIPOS>BOND
     1    1    2 1   
     2    1    6 1   
     3    1   16 1   
     4    1   17 1   
     5    2    3 1   
     6    2   23 1   
     7    2   24 1   
     8    3    4 1   
     9    3   25 1   
    10    3   26 1   
    11    4    5 1   
    12    4   27 1   
    13    4   28 1   
    14    5    6 2   
    15    5   18 1   
    16    6    7 1   
    17    7    8 2   
    18    7   29 1   
    19    8    9 1   
    20    8   30 1   
    21    9   10 2   
    22    9   19 1   
    23   10   11 2   
    24   11   12 2   
    25   12   13 1   
    26   12   33 1   
    27   13   14 2   
    28   13   20 1   
    29   14   15 1   
    30   14   34 1   
    31   15   21 1   
    32   15   22 1   
    33   16   35 1   
    34   16   36 1   
    35   16   37 1   
    36   17   38 1   
    37   17   39 1   
    38   17   40 1   
    39   18   41 1   
    40   18   42 1   
    41   18   43 1   
    42   19   44 1   
    43   19   45 1   
    44   19   46 1   
    45   20   47 1   
    46   20   48 1   
    47   20   49 1   
    48   31   32 1   
@<TRIPOS>SUBSTRUCTURE
     1 REA         1 TEMP              0 ****  ****    0 ROOT
