@<TRIPOS>MOLECULE
molecule
   42    45     1     0     0
SMALL
bcc


@<TRIPOS>ATOM
      1 C10          0.0000     0.0000     0.0000 cc         1 REB      -0.316300
      2 N12          0.6800     0.0010     2.0750 na         1 REB      -0.040600
      3 C15         -2.1710     0.7810     3.0330 cx         1 REB      -0.140400
      4 C20         -3.7160     1.9160    -6.5680 ca         1 REB      -0.100000
      5 C21         -3.2670     1.1330    -7.6150 ca         1 REB      -0.117300
      6 C22         -2.2400     0.2290    -7.4150 ca         1 REB      -0.100000
      7 C24         -3.8990     1.2640    -8.9770 c3         1 REB      -0.017000
      8 C02          2.4680     0.0300    -3.5370 ca         1 REB      -0.482600
      9 C03          1.8690     0.1730    -4.7730 ca         1 REB       0.526200
     10 N04          0.5670     0.4140    -4.8390 nb         1 REB      -0.811000
     11 C05         -0.1630     0.5170    -3.7390 ca         1 REB       0.932900
     12 N06          0.3720     0.3850    -2.5350 nb         1 REB      -0.840000
     13 C07          1.6700     0.1380    -2.3950 ca         1 REB       0.698200
     14 N08          2.2280    -0.0010    -1.1340 nu         1 REB      -0.800600
     15 C09          1.4040     0.0000     0.0000 cc         1 REB       0.614200
     16 C11         -0.4150     0.0010     1.2860 cd         1 REB      -0.034600
     17 N13          1.8110     0.0000     1.2480 nd         1 REB      -0.558800
     18 C14         -1.8470     0.0020     1.7560 cx         1 REB      -0.052400
     19 C16         -2.1660    -0.7490     3.0510 cx         1 REB      -0.140400
     20 C18         -2.1070     0.8910    -5.1140 ca         1 REB       0.184600
     21 C19         -3.1390     1.7970    -5.3180 ca         1 REB      -0.145500
     22 C23         -1.6590     0.1060    -6.1690 ca         1 REB      -0.145500
     23 C25         -3.1800     2.2860    -9.7550 c1         1 REB       0.266700
     24 N26         -2.6170     3.0810   -10.3390 n1         1 REB      -0.368800
     25 H10         -0.8840     0.2590    -0.5700 ha         1 REB       0.173000
     26 H15         -1.2980     1.2190     3.5030 hc         1 REB       0.075950
     27 H15A        -3.1190     1.2950     2.9260 hc         1 REB       0.075950
     28 H20         -4.4630     2.6240    -6.9070 ha         1 REB       0.141000
     29 H22         -1.8240    -0.6100    -7.9600 ha         1 REB       0.141000
     30 H24         -3.9480     0.2110    -9.2250 hc         1 REB       0.082200
     31 H24A        -4.9540     1.1070    -8.7860 hc         1 REB       0.082200
     32 H02          3.5320    -0.0340    -3.3460 ha         1 REB       0.148000
     33 H03          2.4890     0.0920    -5.6580 h4         1 REB       0.032100
     34 HN08         2.9650    -0.6070    -1.4360 hn         1 REB       0.448800
     35 H14         -2.6830    -0.0890     1.0730 hc         1 REB       0.105700
     36 H16         -1.5220    -1.1440     3.8270 hc         1 REB       0.075950
     37 H16A        -3.0130    -1.4120     3.1830 hc         1 REB       0.075950
     38 HN17        -1.8390     0.8600    -2.9070 hn         1 REB       0.473800
     39 H19         -3.2980     2.3820    -4.4210 ha         1 REB       0.147000
     40 H23         -0.9030    -0.6500    -5.9910 ha         1 REB       0.147000
     41 HN12         0.8870     0.2730     3.0150 hn         1 REB       0.328700
     42 N17         -1.5210     0.7690    -3.8510 nu         1 REB      -0.763300
@<TRIPOS>BOND
     1     1    16 2
     2     1    15 1
     3     1    25 1
     4    16     2 1
     5     2    17 1
     6     3    19 1
     7     3    18 1
     8     3    26 1
     9     3    27 1
    10     4     5 ar
    11     4    21 ar
    12     4    28 1
    13     7     5 1
    14     5     6 ar
    15     6    22 ar
    16     6    29 1
    17     7    23 1
    18     7    30 1
    19     7    31 1
    20     9     8 ar
    21    13     8 ar
    22     8    32 1
    23    10     9 ar
    24     9    33 1
    25    11    10 ar
    26    42    11 1
    27    11    12 ar
    28    12    13 ar
    29    13    14 1
    30    15    14 1
    31    14    34 1
    32    15    17 2
    33    18    16 1
    34    19    18 1
    35    18    35 1
    36    19    36 1
    37    19    37 1
    38    20    42 1
    39    42    38 1
    40    21    20 ar
    41    20    22 ar
    42    21    39 1
    43    22    40 1
    44    23    24 3
    45     2    41 1
@<TRIPOS>SUBSTRUCTURE
     1 REB         1 TEMP              0 ****  ****    0 ROOT
