@<TRIPOS>MOLECULE
molecule
   45    45     1     0     0
SMALL
bcc


@<TRIPOS>ATOM
      1 O14          0.0000     0.0000     0.0000 o          1 REC      -0.834300
      2 C13          1.2130     0.0000     0.0000 c          1 REC       0.810300
      3 O15          1.8860     0.0000     1.1660 o          1 REC      -0.834300
      4 C4           1.9570    -0.0080    -1.2880 ce         1 REC       0.437600
      5 N5           3.2240     0.1260    -1.2220 n2         1 REC      -0.588900
      6 C3           1.1630    -0.1730    -2.5120 ce         1 REC      -0.232800
      7 C16         -0.1090    -0.5530    -2.4400 c2         1 REC      -0.210000
      8 C2           1.8100     0.0920    -3.8570 c3         1 REC       0.007900
      9 S1           3.4780    -0.6390    -3.7900 ss         1 REC      -0.295200
     10 C6           4.1720     0.1730    -2.3240 c3         1 REC       0.233600
     11 C7           5.4610    -0.5420    -1.9120 c3         1 REC       0.038700
     12 C8           6.4890    -0.3880    -3.0040 c          1 REC       0.880600
     13 O9           6.2370    -0.8580    -4.2350 o          1 REC      -0.837300
     14 N10          5.9720     0.0490    -0.6730 ns         1 REC      -0.509900
     15 C11          6.7590    -0.6780     0.1450 c          1 REC       0.671100
     16 O12          7.0440    -1.8210    -0.1460 o          1 REC      -0.641100
     17 CA1          7.2860    -0.0720     1.4190 c3         1 REC      -0.161400
     18 CB1          8.1450    -1.1000     2.1570 c3         1 REC      -0.059400
     19 CG1          8.6790    -0.4830     3.4520 c3         1 REC      -0.105400
     20 CD1          9.5390    -1.5130     4.1900 c3         1 REC      -0.089400
     21 CE1         10.0730    -0.8960     5.4840 c3         1 REC      -0.018500
     22 NZ1          8.9520    -0.6070     6.3870 nz         1 REC      -0.799600
     23 CZ1         11.0170    -1.8640     6.1490 c          1 REC       0.874600
     24 OH1         12.2840    -1.9700     5.7170 o          1 REC      -0.790800
     25 O           10.6350    -2.5450     7.0710 o          1 REC      -0.790800
     26 OXT          7.5420     0.1570    -2.7700 o          1 REC      -0.837300
     27 H6           4.3910     1.2070    -2.5600 h2         1 REC       0.066700
     28 H161        -0.5650    -0.7410    -1.4760 ha         1 REC       0.127000
     29 H162        -0.6900    -0.6740    -3.3470 ha         1 REC       0.127000
     30 H2C1         1.8810     1.1590    -4.0280 h1         1 REC       0.048200
     31 H2C2         1.2320    -0.3780    -4.6430 h1         1 REC       0.048200
     32 H7           5.2570    -1.5940    -1.7540 h1         1 REC       0.092700
     33 H10          5.7650     1.0020    -0.4500 hn         1 REC       0.305500
     34 HA11         6.4550     0.2230     2.0490 hc         1 REC       0.050200
     35 HA12         7.8870     0.7980     1.1840 hc         1 REC       0.050200
     36 HB11         7.5440    -1.9700     2.3930 hc         1 REC       0.066200
     37 HB12         8.9760    -1.3950     1.5280 hc         1 REC       0.066200
     38 HG11         7.8480    -0.1890     4.0810 hc         1 REC       0.022700
     39 HG12         9.2800     0.3870     3.2160 hc         1 REC       0.022700
     40 HD11         8.9380    -2.3830     4.4260 hc         1 REC       0.087200
     41 HD12        10.3700    -1.8070     3.5610 hc         1 REC       0.087200
     42 HE1         10.6000     0.0230     5.2560 hx         1 REC       0.099700
     43 HZ11         8.1220    -1.0460     6.0400 hn         1 REC       0.438467
     44 HZ12         8.8100     0.3820     6.4370 hn         1 REC       0.438467
     45 HZ13         9.1590    -0.9610     7.3000 hn         1 REC       0.438467
@<TRIPOS>BOND
     1     1     2 1
     2     2     3 1
     3     2     4 1
     4     4     5 2
     5     4     6 1
     6     5    10 1
     7     6     7 2
     8     6     8 1
     9     8     9 1
    10     9    10 1
    11    10    11 1
    12    11    12 1
    13    11    14 1
    14    12    13 1
    15    12    26 1
    16    14    15 1
    17    15    16 2
    18    15    17 1
    19    17    18 1
    20    18    19 1
    21    19    20 1
    22    20    21 1
    23    21    22 1
    24    21    23 1
    25    23    24 1
    26    23    25 1
    27    10    27 1
    28     7    28 1
    29     7    29 1
    30     8    30 1
    31     8    31 1
    32    11    32 1
    33    14    33 1
    34    17    34 1
    35    17    35 1
    36    18    36 1
    37    18    37 1
    38    19    38 1
    39    19    39 1
    40    20    40 1
    41    20    41 1
    42    21    42 1
    43    22    43 1
    44    22    44 1
    45    45    22 1
@<TRIPOS>SUBSTRUCTURE
     1 REC         1 TEMP              0 ****  ****    0 ROOT
