@<TRIPOS>MOLECULE
molecule
   27    26     1     0     0
SMALL
bcc


@<TRIPOS>ATOM
      1 C1           0.0000     0.0000     0.0000 c          1 RED       0.891600
      2 O1           1.2080     0.0000     0.0000 o          1 RED      -0.857300
      3 OXT         -0.6710     0.0000     1.1630 o          1 RED      -0.857300
      4 C2          -0.7530     0.0020    -1.3050 c3         1 RED      -0.182400
      5 C3           0.2400     0.0020    -2.4670 c3         1 RED      -0.061400
      6 C4          -0.5240     0.0030    -3.7930 c3         1 RED      -0.097400
      7 C5           0.4690     0.0030    -4.9540 c3         1 RED      -0.067400
      8 C6          -0.2950     0.0040    -6.2800 c3         1 RED       0.059400
      9 C7           0.6980     0.0050    -7.4430 c3         1 RED      -0.054400
     10 C8          -0.0660     0.0060    -8.7680 c3         1 RED       0.039700
     11 S8           1.1110     0.0050   -10.1470 sh         1 RED      -0.443900
     12 S6          -1.3370     1.4850    -6.3740 sh         1 RED      -0.431900
     13 H22         -1.3750     0.8870    -1.3610 hc         1 RED       0.027700
     14 H21         -1.3770    -0.8820    -1.3630 hc         1 RED       0.027700
     15 H32          0.8630     0.8860    -2.4100 hc         1 RED       0.045700
     16 H31          0.8620    -0.8830    -2.4100 hc         1 RED       0.045700
     17 H42         -1.1470    -0.8820    -3.8510 hc         1 RED       0.038700
     18 H41         -1.1470     0.8870    -3.8500 hc         1 RED       0.038700
     19 H52          1.0910    -0.8810    -4.8970 hc         1 RED       0.053200
     20 H51          1.0920     0.8870    -4.8960 hc         1 RED       0.053200
     21 H6          -0.9180    -0.8800    -6.3380 h1         1 RED       0.057700
     22 H72          1.3210     0.8890    -7.3840 hc         1 RED       0.066700
     23 H71          1.3210    -0.8800    -7.3860 hc         1 RED       0.066700
     24 H82         -0.6880     0.8910    -8.8250 h1         1 RED       0.062200
     25 H81         -0.6900    -0.8780    -8.8260 h1         1 RED       0.062200
     26 H8S          0.4470     0.0070   -11.2960 hs         1 RED       0.209800
     27 H6S         -2.6080     1.1250    -6.5070 hs         1 RED       0.208800
@<TRIPOS>BOND
     1     1     2 1
     2     1     3 1
     3     1     4 1
     4     4     5 1
     5     4    13 1
     6     4    14 1
     7     5     6 1
     8     5    15 1
     9     5    16 1
    10     6     7 1
    11     6    17 1
    12     6    18 1
    13     7     8 1
    14     7    19 1
    15     7    20 1
    16     8     9 1
    17     8    12 1
    18     8    21 1
    19     9    10 1
    20     9    22 1
    21     9    23 1
    22    10    11 1
    23    10    24 1
    24    10    25 1
    25    11    26 1
    26    12    27 1
@<TRIPOS>SUBSTRUCTURE
     1 RED         1 TEMP              0 ****  ****    0 ROOT
