@<TRIPOS>MOLECULE
RED
   27    26     1     0     0
SMALL
bcc


@<TRIPOS>ATOM
      1 C1          0.0150   -0.2920   -0.0350 c         1 RED      0.908600
      2 O1          1.1400   -0.8700   -0.0270 o         1 RED     -0.850300
      3 OXT        -0.5170    0.2320    0.9850 o         1 RED     -0.850300
      4 C2         -0.7720   -0.2380   -1.3580 c3        1 RED     -0.196400
      5 C3          0.1290    0.1190   -2.5140 c3        1 RED     -0.065400
      6 C4         -0.5790   -0.0330   -3.8450 c3        1 RED     -0.084400
      7 C5          0.3300    0.3470   -4.9960 c3        1 RED     -0.090400
      8 C6         -0.3510    0.2130   -6.3410 c3        1 RED      0.056400
      9 C7          0.6610    0.0740   -7.4620 c3        1 RED     -0.063400
     10 C8         -0.0140   -0.1610   -8.7900 c3        1 RED      0.012700
     11 S8          1.2610   -0.3660  -10.0070 sh        1 RED     -0.392900
     12 S6         -1.3720    1.6340   -6.7490 sh        1 RED     -0.452900
     13 H22        -1.2280   -1.2470   -1.5240 hc        1 RED      0.019700
     14 H21        -1.6030    0.5050   -1.2650 hc        1 RED      0.019700
     15 H32         1.0350   -0.5430   -2.4810 hc        1 RED      0.047700
     16 H31         0.4870    1.1750   -2.3980 hc        1 RED      0.047700
     17 H42        -1.5000    0.6080   -3.8530 hc        1 RED      0.028200
     18 H41        -0.9180   -1.0950   -3.9690 hc        1 RED      0.028200
     19 H52         1.2340   -0.3210   -4.9710 hc        1 RED      0.055700
     20 H51         0.6990    1.3980   -4.8600 hc        1 RED      0.055700
     21 H6         -1.0230   -0.6840   -6.3310 h1        1 RED      0.069700
     22 H72         1.2950    1.0000   -7.5120 hc        1 RED      0.067700
     23 H71         1.3440   -0.7880   -7.2290 hc        1 RED      0.067700
     24 H82        -0.6520   -1.0760   -8.7490 h1        1 RED      0.068700
     25 H81        -0.6690    0.7070   -9.0520 h1        1 RED      0.068700
     26 H8S         0.5020   -0.4400  -11.0850 hs        1 RED      0.193800
     27 H6S        -1.8060    1.9500   -5.5380 hs        1 RED      0.230800
@<TRIPOS>BOND
     1    1    2 1   
     2    1    3 1   
     3    1    4 1   
     4    4    5 1   
     5    4   13 1   
     6    4   14 1   
     7    5    6 1   
     8    5   15 1   
     9    5   16 1   
    10    6    7 1   
    11    6   17 1   
    12    6   18 1   
    13    7    8 1   
    14    7   19 1   
    15    7   20 1   
    16    8    9 1   
    17    8   12 1   
    18    8   21 1   
    19    9   10 1   
    20    9   22 1   
    21    9   23 1   
    22   10   11 1   
    23   10   24 1   
    24   10   25 1   
    25   11   26 1   
    26   12   27 1   
@<TRIPOS>SUBSTRUCTURE
     1 RED         1 TEMP              0 ****  ****    0 ROOT
