@<TRIPOS>MOLECULE
molecule
   24    23     1     0     0
SMALL
bcc


@<TRIPOS>ATOM
      1 C1           0.0000     0.0000     0.0000 c          1 REE       0.893600
      2 N1          -0.4940    -0.0090     3.7400 n7         1 REE      -0.573000
      3 O1           1.2080     0.0000     0.0000 o          1 REE      -0.816300
      4 C2          -0.7530     0.0000     1.3060 c3         1 REE      -0.180400
      5 N2           0.4220    -0.0160     4.8710 n4         1 REE      -0.378600
      6 O2          -0.6720     0.0070    -1.1620 o          1 REE      -0.816300
      7 C3           0.2410    -0.0090     2.4680 c3         1 REE       0.118800
      8 C4           1.2740     1.1790     4.8190 c3         1 REE       0.093433
      9 C5          -0.3460    -0.0170     6.1230 c3         1 REE       0.093433
     10 C6           1.2630    -1.2200     4.8110 c3         1 REE       0.093433
     11 HN1         -1.0780     0.8020     3.7890 hn         1 REE       0.386800
     12 H2          -1.3720     0.8870     1.3660 hc         1 REE       0.050700
     13 H2A         -1.3810    -0.8810     1.3610 hc         1 REE       0.050700
     14 H3           0.8590    -0.8960     2.4080 h1         1 REE       0.067700
     15 H3A          0.8680     0.8730     2.4140 h1         1 REE       0.067700
     16 H4           1.7260     1.3430     5.7890 hx         1 REE       0.094144
     17 H4A          2.0510     1.0370     4.0780 hx         1 REE       0.094144
     18 H4B          0.6730     2.0400     4.5510 hx         1 REE       0.094144
     19 H5           0.3340    -0.0790     6.9640 hx         1 REE       0.094144
     20 H5A         -1.0150    -0.8690     6.1350 hx         1 REE       0.094144
     21 H5B         -0.9240     0.8970     6.1920 hx         1 REE       0.094144
     22 H6           1.6950    -1.4080     5.7860 hx         1 REE       0.094144
     23 H6A          0.6590    -2.0680     4.5140 hx         1 REE       0.094144
     24 H6B          2.0560    -1.0700     4.0880 hx         1 REE       0.094144
@<TRIPOS>BOND
     1     4     1 1
     2     3     1 1
     3     1     6 1
     4     7     2 1
     5     5     2 1
     6     2    11 1
     7     7     4 1
     8     4    12 1
     9     4    13 1
    10    10     5 1
    11     9     5 1
    12     5     8 1
    13     7    14 1
    14     7    15 1
    15     8    16 1
    16     8    17 1
    17     8    18 1
    18     9    19 1
    19     9    20 1
    20     9    21 1
    21    10    22 1
    22    10    23 1
    23    10    24 1
@<TRIPOS>SUBSTRUCTURE
     1 REE         1 TEMP              0 ****  ****    0 ROOT
