@<TRIPOS>MOLECULE
molecule
   28    31     1     0     0
SMALL
bcc


@<TRIPOS>ATOM
      1 C1           0.0000     0.0000     0.0000 ca         1 REF      -0.136100
      2 C2           1.4120     0.0000     0.0000 ca         1 REF      -0.080500
      3 C3           2.0870     0.0000     1.3030 ca         1 REF      -0.080500
      4 C4           1.3560    -0.1860     2.4730 ca         1 REF       0.130600
      5 O5           0.0190    -0.3990     2.4040 os         1 REF      -0.302700
      6 C6          -0.6590     0.0320     1.3140 c          1 REF       0.756700
      7 C7           3.4840     0.2040     1.3090 ca         1 REF      -0.136100
      8 C8           4.1530     0.2050     2.5260 ca         1 REF      -0.102500
      9 C9           3.4290     0.0240     3.6960 ca         1 REF       0.106600
     10 C10          2.0470    -0.1650     3.6810 ca         1 REF       0.114600
     11 C11          2.1570     0.0010    -1.1780 ca         1 REF       0.130600
     12 O12          3.5110    -0.0250    -1.1170 os         1 REF      -0.302700
     13 C13          4.1240     0.4260     0.0030 c          1 REF       0.756700
     14 C14         -0.6680    -0.0110    -1.2170 ca         1 REF      -0.102500
     15 C15          0.0700    -0.0050    -2.3930 ca         1 REF       0.106600
     16 C16          1.4650     0.0070    -2.3850 ca         1 REF       0.114600
     17 O19          1.3730    -0.3290     4.8490 oh         1 REF      -0.488100
     18 O20          4.0830     0.0300     4.8870 oh         1 REF      -0.497600
     19 O21          5.1910     1.0070    -0.0690 o          1 REF      -0.533500
     20 O22          2.1490     0.0230    -3.5590 oh         1 REF      -0.488100
     21 O23         -0.5860    -0.0080    -3.5850 oh         1 REF      -0.497600
     22 O24         -1.7990     0.4440     1.4210 o          1 REF      -0.533500
     23 H8           5.2260     0.3500     2.5620 ha         1 REF       0.171000
     24 H14         -1.7510    -0.0200    -1.2490 ha         1 REF       0.171000
     25 HO19         1.3130    -1.2490     5.0510 ho         1 REF       0.431500
     26 HO20         4.3540     0.9100     5.0930 ho         1 REF       0.430000
     27 HO22         2.3750    -0.8600    -3.8030 ho         1 REF       0.431500
     28 HO23        -1.0380    -0.8290    -3.6930 ho         1 REF       0.430000
@<TRIPOS>BOND
     1     1     2 ar
     2     1     6 1
     3     1    14 ar
     4     2     3 1
     5     2    11 ar
     6     3     4 ar
     7     3     7 ar
     8     4     5 1
     9     4    10 ar
    10     5     6 1
    11     6    22 2
    12     7     8 ar
    13     7    13 1
    14     8     9 ar
    15     9    10 ar
    16     9    18 1
    17    10    17 1
    18    11    12 1
    19    11    16 ar
    20    12    13 1
    21    13    19 2
    22    14    15 ar
    23    15    16 ar
    24    15    21 1
    25    16    20 1
    26     8    23 1
    27    14    24 1
    28    17    25 1
    29    18    26 1
    30    20    27 1
    31    21    28 1
@<TRIPOS>SUBSTRUCTURE
     1 REF         1 TEMP              0 ****  ****    0 ROOT
