@<TRIPOS>MOLECULE
REF
   28    31     1     0     0
SMALL
bcc


@<TRIPOS>ATOM
      1 C1          0.0390   -0.1540    0.0080 ca        1 REF     -0.126100
      2 C2          1.4290    0.0340    0.0030 ca        1 REF     -0.047000
      3 C3          2.1480    0.0740    1.2440 ca        1 REF     -0.047000
      4 C4          1.4470   -0.0760    2.4460 ca        1 REF      0.075100
      5 O5          0.0780   -0.2640    2.4910 os        1 REF     -0.340700
      6 C6         -0.6430   -0.3060    1.2930 c         1 REF      0.750700
      7 C7          3.5400    0.2640    1.2410 ca        1 REF     -0.126100
      8 C8          4.2410    0.3030    2.4460 ca        1 REF     -0.107000
      9 C9          3.5410    0.1520    3.6550 ca        1 REF      0.118100
     10 C10         2.1400   -0.0390    3.6690 ca        1 REF      0.108600
     11 C11         2.1270    0.1850   -1.2020 ca        1 REF      0.075100
     12 O12         3.4980    0.3730   -1.2450 os        1 REF     -0.340700
     13 C13         4.2200    0.4150   -0.0480 c         1 REF      0.750700
     14 C14        -0.6580   -0.1930   -1.2020 ca        1 REF     -0.107000
     15 C15         0.0360   -0.0430   -2.4100 ca        1 REF      0.118100
     16 C16         1.4420    0.1490   -2.4300 ca        1 REF      0.108600
     17 O19         1.5400   -0.1770    4.8950 oh        1 REF     -0.477600
     18 O20         4.2830    0.1990    4.8070 oh        1 REF     -0.471600
     19 O21         5.4130    0.5880   -0.2780 o         1 REF     -0.548000
     20 O22         2.0520    0.2880   -3.6440 oh        1 REF     -0.477600
     21 O23        -0.5870   -0.0710   -3.6330 oh        1 REF     -0.471600
     22 O24        -1.8380   -0.4790    1.5210 o         1 REF     -0.548000
     23 H8          5.3330    0.4500    2.4610 ha        1 REF      0.176500
     24 H14        -1.7500   -0.3420   -1.1990 ha        1 REF      0.176500
     25 HO19        0.5860   -0.2990    4.7530 ho        1 REF      0.453000
     26 HO20        3.6840    0.0830    5.5630 ho        1 REF      0.436500
     27 HO22        3.0060    0.4100   -3.4900 ho        1 REF      0.453000
     28 HO23       -1.5360   -0.2070   -3.4810 ho        1 REF      0.436500
@<TRIPOS>BOND
     1    1    2 ar  
     2    1    6 1   
     3    1   14 ar  
     4    2    3 1   
     5    2   11 ar  
     6    3    4 ar  
     7    3    7 ar  
     8    4    5 1   
     9    4   10 ar  
    10    5    6 1   
    11    6   22 2   
    12    7    8 ar  
    13    7   13 1   
    14    8    9 ar  
    15    8   23 1   
    16    9   10 ar  
    17    9   18 1   
    18   10   17 1   
    19   11   12 1   
    20   11   16 ar  
    21   12   13 1   
    22   13   19 2   
    23   14   15 ar  
    24   14   24 1   
    25   15   16 ar  
    26   15   21 1   
    27   16   20 1   
    28   17   25 1   
    29   18   26 1   
    30   20   27 1   
    31   21   28 1   
@<TRIPOS>SUBSTRUCTURE
     1 REF         1 TEMP              0 ****  ****    0 ROOT
