@<TRIPOS>MOLECULE
REN
   47    49     1     0     0
SMALL
bcc


@<TRIPOS>ATOM
      1 C2           0.0000     0.0000     0.0000 ca         1 REN      -0.110000
      2 C3           1.3830     0.0000     0.0000 ca         1 REN       0.089100
      3 C5           2.0730     0.0000     1.2090 ca         1 REN       0.126100
      4 C8           1.3690     0.0030     2.3990 ca         1 REN      -0.198000
      5 C9          -0.0180     0.0050     2.3940 ca         1 REN      -0.047300
      6 C10         -0.7400     0.0140     3.7170 c3         1 REN      -0.011100
      7 C11         -2.1970    -0.4030     3.5210 c3         1 REN       0.156800
      8 N12         -2.7710     0.4040     2.4330 n3         1 REN      -0.530600
      9 C14         -2.2070    -0.0090     1.1430 c3         1 REN       0.200800
     10 C16         -2.6800     0.9570     0.0540 c3         1 REN       0.013900
     11 C17         -4.1700     0.8200    -0.1260 ca         1 REN      -0.097300
     12 C25         -5.0250     1.6960     0.5150 ca         1 REN      -0.068000
     13 C24         -6.3920     1.5750     0.3540 ca         1 REN      -0.191000
     14 C21         -6.9090     0.5740    -0.4540 ca         1 REN       0.118100
     15 O22         -8.2540     0.4540    -0.6150 os         1 REN      -0.294900
     16 C23         -9.0770     1.3950     0.0800 c3         1 REN       0.240700
     17 C19         -6.0480    -0.3070    -1.1020 ca         1 REN       0.091100
     18 O20         -6.5500    -1.2900    -1.8960 oh         1 REN      -0.485100
     19 C18         -4.6780    -0.1760    -0.9390 ca         1 REN      -0.112000
     20 C1          -0.7030     0.0010     1.1970 ca         1 REN      -0.137300
     21 C13         -2.5510     1.8370     2.6680 c3         1 REN       0.147100
     22 O6           3.4330    -0.0030     1.2190 os         1 REN      -0.292900
     23 C7           4.0730    -0.0020     2.4970 c3         1 REN       0.240700
     24 O4           2.0650    -0.0020    -1.1760 oh         1 REN      -0.485100
     25 H2          -0.5380    -0.0000    -0.9400 ha         1 REN       0.124000
     26 H8           1.9040     0.0030     3.3410 ha         1 REN       0.125000
     27 H10         -0.2570    -0.6800     4.3940 hc         1 REN       0.028700
     28 H10A        -0.7060     1.0130     4.1360 hc         1 REN       0.028700
     29 H11         -2.7510    -0.2270     4.4350 h1         1 REN       0.026200
     30 H11A        -2.2420    -1.4520     3.2570 h1         1 REN       0.026200
     31 H14         -2.5480    -1.0100     0.9100 h1         1 REN       0.047700
     32 H16         -2.1810     0.7220    -0.8780 hc         1 REN       0.031700
     33 H16A        -2.4430     1.9730     0.3450 hc         1 REN       0.031700
     34 H25         -4.6220     2.4780     1.1470 ha         1 REN       0.114000
     35 H24         -7.0600     2.2630     0.8580 ha         1 REN       0.120000
     36 H23        -10.1190     1.1920    -0.1370 h1         1 REN      -0.003300
     37 H23A        -8.8300     2.3990    -0.2440 h1         1 REN      -0.003300
     38 H23B        -8.9060     1.3060     1.1460 h1         1 REN      -0.003300
     39 HO20        -6.4660    -1.0370    -2.8010 ho         1 REN       0.396000
     40 H18         -4.0050    -0.8610    -1.4420 ha         1 REN       0.113000
     41 H13         -2.4010     2.0110     3.7270 h1         1 REN       0.013367
     42 H13A        -1.6740     2.1620     2.1210 h1         1 REN       0.013367
     43 H13B        -3.4150     2.3950     2.3290 h1         1 REN       0.013367
     44 H7           3.7810     0.8840     3.0460 h1         1 REN      -0.002300
     45 H7A          5.1480    -0.0070     2.3630 h1         1 REN      -0.002300
     46 H7B          3.7740    -0.8850     3.0500 h1         1 REN      -0.002300
     47 HO4          2.1090    -0.8820    -1.5120 ho         1 REN       0.399000
@<TRIPOS>BOND
     1     1     2 ar  
     2     1    20 ar  
     3     1    25 1   
     4     2     3 ar  
     5     2    24 1   
     6     3     4 ar  
     7     3    22 1   
     8     4     5 ar  
     9     4    26 1   
    10     5     6 1   
    11     5    20 ar  
    12     6     7 1   
    13     6    27 1   
    14     6    28 1   
    15     7     8 1   
    16     7    29 1   
    17     7    30 1   
    18     8     9 1   
    19     8    21 1   
    20     9    10 1   
    21     9    20 1   
    22     9    31 1   
    23    10    11 1   
    24    10    32 1   
    25    10    33 1   
    26    11    12 ar  
    27    11    19 ar  
    28    12    13 ar  
    29    12    34 1   
    30    13    14 ar  
    31    13    35 1   
    32    14    15 1   
    33    14    17 ar  
    34    15    16 1   
    35    16    36 1   
    36    16    37 1   
    37    16    38 1   
    38    17    18 1   
    39    17    19 ar  
    40    18    39 1   
    41    19    40 1   
    42    21    41 1   
    43    21    42 1   
    44    21    43 1   
    45    22    23 1   
    46    23    44 1   
    47    23    45 1   
    48    23    46 1   
    49    24    47 1   
@<TRIPOS>SUBSTRUCTURE
     1 REN         1 TEMP              0 ****  ****    0 ROOT
