@<TRIPOS>MOLECULE
molecule
   47    49     1     0     0
SMALL
bcc


@<TRIPOS>ATOM
      1 C2           0.0000     0.0000     0.0000 ca         1 REN      -0.122000
      2 C3           1.3830     0.0000     0.0000 ca         1 REN       0.076100
      3 C5           2.0730     0.0000     1.2090 ca         1 REN       0.126100
      4 C8           1.3690     0.0030     2.3990 ca         1 REN      -0.212000
      5 C9          -0.0180     0.0050     2.3940 ca         1 REN      -0.041300
      6 C10         -0.7400     0.0140     3.7170 c3         1 REN      -0.078100
      7 C11         -2.1970    -0.4030     3.5210 c3         1 REN       0.160800
      8 N12         -2.7710     0.4040     2.4330 n3         1 REN      -0.704600
      9 C14         -2.2070    -0.0090     1.1430 c3         1 REN       0.223800
     10 C16         -2.6800     0.9570     0.0540 c3         1 REN      -0.031100
     11 C17         -4.1700     0.8200    -0.1260 ca         1 REN      -0.095300
     12 C25         -5.0250     1.6960     0.5150 ca         1 REN      -0.083000
     13 C24         -6.3920     1.5750     0.3540 ca         1 REN      -0.209000
     14 C21         -6.9090     0.5740    -0.4540 ca         1 REN       0.120100
     15 O22         -8.2540     0.4540    -0.6150 os         1 REN      -0.315900
     16 C23         -9.0770     1.3950     0.0800 c3         1 REN       0.126700
     17 C19         -6.0480    -0.3070    -1.1020 ca         1 REN       0.078100
     18 O20         -6.5500    -1.2900    -1.8960 oh         1 REN      -0.506100
     19 C18         -4.6780    -0.1760    -0.9390 ca         1 REN      -0.126000
     20 C1          -0.7030     0.0010     1.1970 ca         1 REN      -0.140300
     21 C13         -2.5510     1.8370     2.6680 c3         1 REN       0.137100
     22 O6           3.4330    -0.0030     1.2190 os         1 REN      -0.314900
     23 C7           4.0730    -0.0020     2.4970 c3         1 REN       0.126700
     24 O4           2.0650    -0.0020    -1.1760 oh         1 REN      -0.506100
     25 H2          -0.5380    -0.0000    -0.9400 ha         1 REN       0.146000
     26 H8           1.9040     0.0030     3.3410 ha         1 REN       0.139000
     27 H10         -0.2570    -0.6800     4.3940 hc         1 REN       0.056700
     28 H10A        -0.7060     1.0130     4.1360 hc         1 REN       0.056700
     29 H11         -2.7510    -0.2270     4.4350 h1         1 REN       0.060200
     30 H11A        -2.2420    -1.4520     3.2570 h1         1 REN       0.060200
     31 H14         -2.5480    -1.0100     0.9100 h1         1 REN       0.080700
     32 H16         -2.1810     0.7220    -0.8780 hc         1 REN       0.056200
     33 H16A        -2.4430     1.9730     0.3450 hc         1 REN       0.056200
     34 H25         -4.6220     2.4780     1.1470 ha         1 REN       0.135000
     35 H24         -7.0600     2.2630     0.8580 ha         1 REN       0.137000
     36 H23        -10.1190     1.1920    -0.1370 h1         1 REN       0.040700
     37 H23A        -8.8300     2.3990    -0.2440 h1         1 REN       0.040700
     38 H23B        -8.9060     1.3060     1.1460 h1         1 REN       0.040700
     39 HO20        -6.4660    -1.0370    -2.8010 ho         1 REN       0.413000
     40 H18         -4.0050    -0.8610    -1.4420 ha         1 REN       0.140000
     41 H13         -2.4010     2.0110     3.7270 h1         1 REN       0.036700
     42 H13A        -1.6740     2.1620     2.1210 h1         1 REN       0.036700
     43 H13B        -3.4150     2.3950     2.3290 h1         1 REN       0.036700
     44 H7           3.7810     0.8840     3.0460 h1         1 REN       0.041700
     45 H7A          5.1480    -0.0070     2.3630 h1         1 REN       0.041700
     46 H7B          3.7740    -0.8850     3.0500 h1         1 REN       0.041700
     47 HO4          2.1090    -0.8820    -1.5120 ho         1 REN       0.416000
@<TRIPOS>BOND
     1     1     2 ar
     2     1    20 ar
     3     2     3 ar
     4     2    24 1
     5     3     4 ar
     6     3    22 1
     7     4     5 ar
     8     5     6 1
     9     5    20 ar
    10     6     7 1
    11     7     8 1
    12     8     9 1
    13     8    21 1
    14     9    10 1
    15     9    20 1
    16    10    11 1
    17    11    12 ar
    18    11    19 ar
    19    12    13 ar
    20    13    14 ar
    21    14    15 1
    22    14    17 ar
    23    15    16 1
    24    17    18 1
    25    17    19 ar
    26    22    23 1
    27     1    25 1
    28     4    26 1
    29     6    27 1
    30     6    28 1
    31     7    29 1
    32     7    30 1
    33     9    31 1
    34    10    32 1
    35    10    33 1
    36    12    34 1
    37    13    35 1
    38    16    36 1
    39    16    37 1
    40    16    38 1
    41    18    39 1
    42    19    40 1
    43    21    41 1
    44    21    42 1
    45    21    43 1
    46    23    44 1
    47    23    45 1
    48    23    46 1
    49    24    47 1
@<TRIPOS>SUBSTRUCTURE
     1 REN         1 TEMP              0 ****  ****    0 ROOT
