@<TRIPOS>MOLECULE
molecule
   22    21     1     0     0
SMALL
bcc


@<TRIPOS>ATOM
      1 O7           0.0000     0.0000     0.0000 o          1 RES      -0.908833
      2 P            1.4810     0.0000     0.0000 p5         1 RES       1.152900
      3 O5           2.0170     0.0000     1.5170 o          1 RES      -0.908833
      4 O6           2.0170     1.3150    -0.7580 o          1 RES      -0.908833
      5 O4           2.0180    -1.3140    -0.7600 os         1 RES      -0.544200
      6 C4           1.4150    -1.3170    -2.0560 c3         1 RES       0.142400
      7 C3           1.8860    -2.5470    -2.8340 c3         1 RES       0.142100
      8 O3           1.4060    -3.7290    -2.1920 oh         1 RES      -0.651800
      9 C2           1.3410    -2.4860    -4.2630 c3         1 RES       0.090100
     10 O2           1.8210    -1.3030    -4.9050 oh         1 RES      -0.545800
     11 C1           1.8050    -3.6980    -5.0300 c          1 RES       0.640100
     12 O1           2.5540    -3.5670    -5.9750 o          1 RES      -0.605100
     13 N            1.3870    -4.9260    -4.6660 ns         1 RES      -0.467400
     14 ON           1.8230    -6.0640    -5.3860 oh         1 RES      -0.390100
     15 H4C1         0.3370    -1.3450    -1.9530 h1         1 RES       0.057200
     16 H4C2         1.7030    -0.4200    -2.5900 h1         1 RES       0.057200
     17 H3           2.9690    -2.5650    -2.8610 h1         1 RES       0.052700
     18 HA           2.0080    -3.9860    -1.5140 ho         1 RES       0.429000
     19 H2           0.2580    -2.4690    -4.2360 h1         1 RES       0.050700
     20 HB           1.2240    -1.0520    -5.5890 ho         1 RES       0.393000
     21 H            0.7370    -5.0300    -3.9120 hn         1 RES       0.346500
     22 HN           1.1310    -6.7040    -5.4120 ho         1 RES       0.376000
@<TRIPOS>BOND
     1     1     2 1
     2     2     3 1
     3     2     4 1
     4     2     5 1
     5     5     6 1
     6     6     7 1
     7     6    15 1
     8     6    16 1
     9     7     8 1
    10     7     9 1
    11     7    17 1
    12     8    18 1
    13     9    10 1
    14     9    11 1
    15     9    19 1
    16    10    20 1
    17    11    12 2
    18    11    13 1
    19    13    14 1
    20    13    21 1
    21    14    22 1
@<TRIPOS>SUBSTRUCTURE
     1 RES         1 TEMP              0 ****  ****    0 ROOT
