@<TRIPOS>MOLECULE
molecule
   49    49     1     0     0
SMALL
bcc


@<TRIPOS>ATOM
      1 C1           0.0000     0.0000     0.0000 c3         1 RET      -0.014800
      2 C2           1.5300     0.0000     0.0000 c3         1 RET      -0.068400
      3 C3           2.0170     0.0000     1.4540 c3         1 RET      -0.082400
      4 C4           1.6620     1.3480     2.0850 c3         1 RET      -0.036200
      5 C5           0.2180     1.6720     1.8330 c2         1 RET      -0.102400
      6 C6          -0.5170     1.0770     0.9080 ce         1 RET      -0.102200
      7 C7          -1.8680     1.4820     0.7640 ce         1 RET      -0.095000
      8 C8          -2.1660     2.7870     0.5260 cf         1 RET      -0.150000
      9 C9          -3.5060     3.1950     0.4280 cf         1 RET      -0.050200
     10 C10         -3.8050     4.5060     0.1880 ce         1 RET      -0.161000
     11 C11         -5.1420     4.9120     0.0900 ce         1 RET      -0.090000
     12 C12         -5.4440     6.2350    -0.1530 cf         1 RET      -0.164000
     13 C13         -6.7790     6.6420    -0.2510 cf         1 RET      -0.004200
     14 C14         -7.0800     7.9650    -0.4930 ce         1 RET      -0.290200
     15 C15         -8.4150     8.3720    -0.5910 c          1 RET       0.561100
     16 O1          -8.6800     9.5390    -0.8050 o          1 RET      -0.539100
     17 C16         -0.5070     0.2490    -1.4220 c3         1 RET      -0.079600
     18 C17         -0.5080    -1.3590     0.4860 c3         1 RET      -0.079600
     19 C18         -0.4320     2.7330     2.6830 c3         1 RET      -0.059900
     20 C19         -4.6150     2.1860     0.5870 c3         1 RET      -0.065900
     21 C20         -7.8870     5.6330    -0.0920 c3         1 RET      -0.076900
     22 H21          1.8930    -0.8870    -0.5050 hc         1 RET       0.045700
     23 H22          1.8930     0.8870    -0.5050 hc         1 RET       0.045700
     24 H31          3.0910    -0.1400     1.4780 hc         1 RET       0.045200
     25 H32          1.5280    -0.7970     2.0010 hc         1 RET       0.045200
     26 H41          1.8370     1.3000     3.1530 hc         1 RET       0.051200
     27 H42          2.2830     2.1210     1.6490 hc         1 RET       0.051200
     28 H7          -2.6650     0.7580     0.8790 ha         1 RET       0.135000
     29 H8          -1.3700     3.5180     0.4450 ha         1 RET       0.139000
     30 H10         -3.0090     5.2310     0.0730 ha         1 RET       0.135000
     31 H11         -5.9390     4.1870     0.2040 ha         1 RET       0.132000
     32 H12         -4.6470     6.9600    -0.2680 ha         1 RET       0.139000
     33 H14         -6.2840     8.6900    -0.6070 ha         1 RET       0.152000
     34 H15         -9.2120     7.6530    -0.4460 h4         1 RET      -0.012800
     35 H161        -0.2610     1.2600    -1.7220 hc         1 RET       0.036533
     36 H162        -0.0380    -0.4530    -2.1010 hc         1 RET       0.036533
     37 H163        -1.5820     0.1160    -1.4510 hc         1 RET       0.036533
     38 H171        -1.5020    -1.5340     0.0930 hc         1 RET       0.036533
     39 H172        -0.5410    -1.3660     1.5690 hc         1 RET       0.036533
     40 H173         0.1600    -2.1390     0.1400 hc         1 RET       0.036533
     41 H181        -1.4440     2.4320     2.9250 hc         1 RET       0.043700
     42 H182        -0.4540     3.6690     2.1390 hc         1 RET       0.043700
     43 H183         0.1350     2.8600     3.5980 hc         1 RET       0.043700
     44 H191        -4.2240     1.2900     1.0530 hc         1 RET       0.047700
     45 H192        -5.0210     1.9390    -0.3870 hc         1 RET       0.047700
     46 H193        -5.3980     2.6050     1.2080 hc         1 RET       0.047700
     47 H201        -8.8210     6.0660    -0.4310 hc         1 RET       0.052033
     48 H202        -7.9760     5.3550     0.9510 hc         1 RET       0.052033
     49 H203        -7.6630     4.7530    -0.6830 hc         1 RET       0.052033
@<TRIPOS>BOND
     1     1     2 1
     2     1     6 1
     3     1    17 1
     4     1    18 1
     5     2     3 1
     6     2    22 1
     7     2    23 1
     8     3     4 1
     9     3    24 1
    10     3    25 1
    11     4     5 1
    12     4    26 1
    13     4    27 1
    14     5     6 2
    15     5    19 1
    16     6     7 1
    17     7     8 2
    18     7    28 1
    19     8     9 1
    20     8    29 1
    21     9    10 2
    22     9    20 1
    23    10    11 1
    24    10    30 1
    25    11    12 2
    26    11    31 1
    27    12    13 1
    28    12    32 1
    29    13    14 2
    30    13    21 1
    31    14    15 1
    32    14    33 1
    33    15    16 2
    34    15    34 1
    35    17    35 1
    36    17    36 1
    37    17    37 1
    38    18    38 1
    39    18    39 1
    40    18    40 1
    41    19    41 1
    42    19    42 1
    43    19    43 1
    44    20    44 1
    45    20    45 1
    46    20    46 1
    47    21    47 1
    48    21    48 1
    49    21    49 1
@<TRIPOS>SUBSTRUCTURE
     1 RET         1 TEMP              0 ****  ****    0 ROOT
