@<TRIPOS>MOLECULE
RET
   49    49     1     0     0
SMALL
bcc


@<TRIPOS>ATOM
      1 C1         -0.3000    0.2030   -0.0640 c3        1 RET     -0.004800
      2 C2          1.1410    0.3330    0.4400 c3        1 RET     -0.071400
      3 C3          1.2330    1.1170    1.7270 c3        1 RET     -0.076400
      4 C4          0.7020    2.5190    1.5300 c3        1 RET     -0.044200
      5 C5         -0.5870    2.5530    0.7810 c2        1 RET     -0.090400
      6 C6         -1.0530    1.5080    0.0670 ce        1 RET     -0.092200
      7 C7         -2.2890    1.5730   -0.7110 ce        1 RET     -0.097000
      8 C8         -3.5490    1.7320   -0.2870 cf        1 RET     -0.150000
      9 C9         -4.0340    1.8820    1.0800 cf        1 RET     -0.036200
     10 C10        -4.7740    2.9420    1.4700 ce        1 RET     -0.163000
     11 C11        -5.1160    4.0550    0.6150 ce        1 RET     -0.091000
     12 C12        -5.8550    5.0960    1.0410 cf        1 RET     -0.161000
     13 C13        -6.2200    6.2460    0.2230 cf        1 RET      0.004800
     14 C14        -6.8070    7.3080    0.8140 ce        1 RET     -0.280200
     15 C15        -7.2200    8.5430    0.1480 c         1 RET      0.562100
     16 O1         -7.8080    9.4500    0.7460 o         1 RET     -0.532100
     17 C16        -0.2380   -0.2300   -1.5280 c3        1 RET     -0.086600
     18 C17        -1.0180   -0.8850    0.7290 c3        1 RET     -0.086600
     19 C18        -1.2740    3.8660    0.8610 c3        1 RET     -0.065900
     20 C19        -3.7180    0.7850    2.0270 c3        1 RET     -0.067900
     21 C20        -5.9120    6.1630   -1.2260 c3        1 RET     -0.078900
     22 H21         1.7580    0.8440   -0.3460 hc        1 RET      0.043200
     23 H22         1.5680   -0.6940    0.5890 hc        1 RET      0.043200
     24 H31         2.3010    1.1630    2.0660 hc        1 RET      0.042200
     25 H32         0.6490    0.6000    2.5330 hc        1 RET      0.042200
     26 H41         1.4550    3.1310    0.9610 hc        1 RET      0.049200
     27 H42         0.5650    3.0110    2.5300 hc        1 RET      0.049200
     28 H7         -2.1190    1.4750   -1.8020 ha        1 RET      0.126000
     29 H8         -4.3570    1.7610   -1.0440 ha        1 RET      0.126000
     30 H10        -4.7280    4.0150   -0.4190 ha        1 RET      0.127000
     31 H11        -5.1490    2.9930    2.5070 ha        1 RET      0.129000
     32 H12        -6.2230    5.1220    2.0830 ha        1 RET      0.132000
     33 H14        -7.0130    7.2890    1.9000 ha        1 RET      0.146000
     34 H15        -6.9750    8.6470   -0.9340 h4        1 RET     -0.008800
     35 H161       -1.2430   -0.5610   -1.8830 hc        1 RET      0.036533
     36 H162        0.4720   -1.0860   -1.6370 hc        1 RET      0.036533
     37 H163        0.1160    0.6100   -2.1700 hc        1 RET      0.036533
     38 H171       -0.9410   -0.6890    1.8250 hc        1 RET      0.036533
     39 H172       -0.5580   -1.8800    0.5130 hc        1 RET      0.036533
     40 H173       -2.0980   -0.9190    0.4470 hc        1 RET      0.036533
     41 H181       -2.2640    3.8570    0.3410 hc        1 RET      0.045367
     42 H182       -0.6330    4.6550    0.3920 hc        1 RET      0.045367
     43 H183       -1.4460    4.1480    1.9300 hc        1 RET      0.045367
     44 H191       -2.6070    0.7090    2.1540 hc        1 RET      0.050367
     45 H192       -4.1830    0.9560    3.0280 hc        1 RET      0.050367
     46 H193       -4.0890   -0.1900    1.6230 hc        1 RET      0.050367
     47 H201       -6.3820    6.9890   -1.8120 hc        1 RET      0.052033
     48 H202       -6.2840    5.1930   -1.6430 hc        1 RET      0.052033
     49 H203       -4.8040    6.2100   -1.3810 hc        1 RET      0.052033
@<TRIPOS>BOND
     1    1    2 1   
     2    1    6 1   
     3    1   17 1   
     4    1   18 1   
     5    2    3 1   
     6    2   22 1   
     7    2   23 1   
     8    3    4 1   
     9    3   24 1   
    10    3   25 1   
    11    4    5 1   
    12    4   26 1   
    13    4   27 1   
    14    5    6 2   
    15    5   19 1   
    16    6    7 1   
    17    7    8 2   
    18    7   28 1   
    19    8    9 1   
    20    8   29 1   
    21    9   10 2   
    22    9   20 1   
    23   10   11 1   
    24   10   31 1   
    25   11   12 2   
    26   11   30 1   
    27   12   13 1   
    28   12   32 1   
    29   13   14 2   
    30   13   21 1   
    31   14   15 1   
    32   14   33 1   
    33   15   16 2   
    34   15   34 1   
    35   17   35 1   
    36   17   36 1   
    37   17   37 1   
    38   18   38 1   
    39   18   39 1   
    40   18   40 1   
    41   19   41 1   
    42   19   42 1   
    43   19   43 1   
    44   20   44 1   
    45   20   45 1   
    46   20   46 1   
    47   21   47 1   
    48   21   48 1   
    49   21   49 1   
@<TRIPOS>SUBSTRUCTURE
     1 RET         1 TEMP              0 ****  ****    0 ROOT
