@<TRIPOS>MOLECULE
molecule
   41    42     1     0     0
SMALL
bcc


@<TRIPOS>ATOM
      1 C01          0.0000     0.0000     0.0000 ca         1 REV       0.088100
      2 C02          1.3900     0.0000     0.0000 ca         1 REV       0.089100
      3 C03          2.0830     0.0000     1.2000 ca         1 REV      -0.151000
      4 C04          1.3940    -0.0020     2.4000 ca         1 REV      -0.073300
      5 C05          0.0080    -0.0020     2.4060 ca         1 REV       0.091100
      6 C06         -0.6920    -0.0010     1.2050 ca         1 REV       0.068100
      7 C07          2.5370     2.2000     4.8260 ca         1 REV      -0.124000
      8 C08          2.9040     1.2950     3.8480 ca         1 REV      -0.074300
      9 C09          3.9590     1.5820     3.0030 ca         1 REV      -0.124000
     10 C10          4.6480     2.7730     3.1360 ca         1 REV      -0.125000
     11 C11          4.2810     3.6780     4.1140 ca         1 REV      -0.130000
     12 C12          3.2250     3.3920     4.9590 ca         1 REV      -0.125000
     13 O13         -2.0520    -0.0020     1.2090 os         1 REV      -0.348900
     14 C14         -2.7010    -1.2760     1.2110 c3         1 REV       0.143700
     15 O15         -0.6820     0.0050    -1.1780 os         1 REV      -0.342900
     16 C16         -1.0020     1.2810    -1.7350 c3         1 REV       0.143700
     17 O17          2.0700     0.0010    -1.1790 oh         1 REV      -0.509100
     18 O18         -0.6660    -0.0030     3.5870 oh         1 REV      -0.513100
     19 C19          2.1530    -0.0030     3.7020 c3         1 REV       0.022900
     20 C20          3.1420    -1.1690     3.7140 c3         1 REV      -0.073400
     21 C21          3.8230    -1.2460     5.0820 c3         1 REV      -0.092100
     22 H1           3.1660     0.0000     1.1980 ha         1 REV       0.149000
     23 H2           1.7090     1.9750     5.4880 ha         1 REV       0.130000
     24 H3           4.2470     0.8730     2.2360 ha         1 REV       0.130000
     25 H4           5.4760     2.9970     2.4730 ha         1 REV       0.129500
     26 H5           4.8200     4.6110     4.2190 ha         1 REV       0.129000
     27 H6           2.9370     4.1010     5.7260 ha         1 REV       0.129500
     28 H7          -3.4180    -1.3180     0.4000 h1         1 REV       0.038700
     29 H8          -1.9620    -2.0580     1.0810 h1         1 REV       0.038700
     30 H9          -3.2140    -1.4180     2.1540 h1         1 REV       0.038700
     31 H10         -2.0480     1.3000    -2.0150 h1         1 REV       0.038033
     32 H11         -0.3900     1.4560    -2.6120 h1         1 REV       0.038033
     33 H12         -0.8100     2.0540    -1.0010 h1         1 REV       0.038033
     34 H13          2.4730    -0.8420    -1.3100 ho         1 REV       0.422000
     35 H14         -1.0750     0.8370     3.7160 ho         1 REV       0.428000
     36 H15          1.4560    -0.1120     4.5240 hc         1 REV       0.081700
     37 H16          3.8910    -1.0150     2.9470 hc         1 REV       0.044200
     38 H17          2.6130    -2.0940     3.5220 hc         1 REV       0.044200
     39 H18          4.1620    -2.2600     5.2610 hc         1 REV       0.036367
     40 H19          4.6720    -0.5730     5.1020 hc         1 REV       0.036367
     41 H20          3.1180    -0.9610     5.8530 hc         1 REV       0.036367
@<TRIPOS>BOND
     1    17     2 1
     2    15    16 1
     3    15     1 1
     4     2     1 ar
     5     2     3 ar
     6     1     6 ar
     7     3     4 ar
     8    14    13 1
     9     6    13 1
    10     6     5 ar
    11    21    20 1
    12     4     5 ar
    13     4    19 1
    14    20    19 1
    15     5    18 1
    16     9    10 ar
    17     9     8 ar
    18    19     8 1
    19    10    11 ar
    20     8     7 ar
    21    11    12 ar
    22     7    12 ar
    23     3    22 1
    24     7    23 1
    25     9    24 1
    26    10    25 1
    27    11    26 1
    28    12    27 1
    29    14    28 1
    30    14    29 1
    31    14    30 1
    32    16    31 1
    33    16    32 1
    34    16    33 1
    35    17    34 1
    36    18    35 1
    37    19    36 1
    38    20    37 1
    39    20    38 1
    40    21    39 1
    41    21    40 1
    42    21    41 1
@<TRIPOS>SUBSTRUCTURE
     1 REV         1 TEMP              0 ****  ****    0 ROOT
