@<TRIPOS>MOLECULE
REV
   41    42     1     0     0
SMALL
bcc


@<TRIPOS>ATOM
      1 C01         0.0830   -0.1860    0.0100 ca        1 REV      0.021100
      2 C02         1.4650   -0.4530    0.0090 ca        1 REV      0.102100
      3 C03         2.2010   -0.4070    1.2000 ca        1 REV     -0.126000
      4 C04         1.5820   -0.0860    2.4080 ca        1 REV     -0.058300
      5 C05         0.1940    0.1630    2.4160 ca        1 REV      0.105100
      6 C06        -0.5540    0.1080    1.2240 ca        1 REV      0.022100
      7 C07         2.6190    2.1470    4.9320 ca        1 REV     -0.121000
      8 C08         3.0000    1.3310    3.8580 ca        1 REV     -0.069300
      9 C09         3.9750    1.7920    2.9660 ca        1 REV     -0.121000
     10 C10         4.5660    3.0410    3.1490 ca        1 REV     -0.131500
     11 C11         4.1860    3.8450    4.2230 ca        1 REV     -0.131000
     12 C12         3.2110    3.3960    5.1130 ca        1 REV     -0.131500
     13 O13        -1.8970    0.4540    1.3000 os        1 REV     -0.350900
     14 C14        -2.7850   -0.6290    1.0060 c3        1 REV      0.108700
     15 O15        -0.6020   -0.3310   -1.1870 os        1 REV     -0.349900
     16 C16        -1.1550    0.8920   -1.6830 c3        1 REV      0.108700
     17 O17         2.1480   -0.7760   -1.1410 oh        1 REV     -0.494100
     18 O18        -0.4060    0.4540    3.6200 oh        1 REV     -0.495100
     19 C19         2.3610   -0.0160    3.6890 c3        1 REV      0.027900
     20 C20         3.3930   -1.1390    3.7760 c3        1 REV     -0.073400
     21 C21         3.8180   -1.3970    5.1990 c3        1 REV     -0.094100
     22 H1          3.2790   -0.6280    1.1640 ha        1 REV      0.158000
     23 H2          1.8430    1.8020    5.6320 ha        1 REV      0.133500
     24 H3          4.2720    1.1660    2.1110 ha        1 REV      0.133500
     25 H4          5.3310    3.3930    2.4420 ha        1 REV      0.130000
     26 H5          4.6520    4.8300    4.3670 ha        1 REV      0.129000
     27 H6          2.9050    4.0280    5.9590 ha        1 REV      0.130000
     28 H7         -2.5930   -1.0170   -0.0250 h1        1 REV      0.048700
     29 H8         -2.6620   -1.4430    1.7600 h1        1 REV      0.048700
     30 H9         -3.7990   -0.1640    1.0790 h1        1 REV      0.048700
     31 H10        -1.8680    1.3230   -0.9390 h1        1 REV      0.049033
     32 H11        -0.3390    1.6180   -1.9120 h1        1 REV      0.049033
     33 H12        -1.6860    0.5800   -2.6170 h1        1 REV      0.049033
     34 H13         1.5040   -0.7970   -1.8670 ho        1 REV      0.434000
     35 H14        -1.3410    0.6480    3.4440 ho        1 REV      0.435000
     36 H15         1.6260   -0.1680    4.5380 hc        1 REV      0.079700
     37 H16         2.9500   -2.0750    3.3420 hc        1 REV      0.044700
     38 H17         4.2920   -0.8770    3.1580 hc        1 REV      0.044700
     39 H18         4.2220   -0.4640    5.6630 hc        1 REV      0.036367
     40 H19         4.6120   -2.1810    5.2270 hc        1 REV      0.036367
     41 H20         2.9540   -1.7480    5.8130 hc        1 REV      0.036367
@<TRIPOS>BOND
     1    1    2 ar  
     2    1    6 ar  
     3    1   15 1   
     4    2    3 ar  
     5    2   17 1   
     6    3    4 ar  
     7    3   22 1   
     8    4    5 ar  
     9    4   19 1   
    10    5    6 ar  
    11    5   18 1   
    12    6   13 1   
    13    7    8 ar  
    14    7   12 ar  
    15    7   23 1   
    16    8    9 ar  
    17    8   19 1   
    18    9   10 ar  
    19    9   24 1   
    20   10   11 ar  
    21   10   25 1   
    22   11   12 ar  
    23   11   26 1   
    24   12   27 1   
    25   13   14 1   
    26   14   28 1   
    27   14   29 1   
    28   14   30 1   
    29   15   16 1   
    30   16   31 1   
    31   16   32 1   
    32   16   33 1   
    33   17   34 1   
    34   18   35 1   
    35   19   20 1   
    36   19   36 1   
    37   20   21 1   
    38   20   37 1   
    39   20   38 1   
    40   21   39 1   
    41   21   40 1   
    42   21   41 1   
@<TRIPOS>SUBSTRUCTURE
     1 REV         1 TEMP              0 ****  ****    0 ROOT
