@<TRIPOS>MOLECULE
REW
   65    69     1     0     0
SMALL
bcc


@<TRIPOS>ATOM
      1 C13        -0.1920    0.0480    0.0740 c3        1 REW     -0.107700
      2 C18         4.9010   -2.2780   -0.8870 ca        1 REW     -0.109000
      3 C17         3.6050   -1.8890   -0.5450 ca        1 REW     -0.213000
      4 C16         2.8370   -1.2070   -1.4930 ca        1 REW      0.106100
      5 C19         5.4210   -1.9940   -2.1450 ca        1 REW     -0.159000
      6 C20         4.6470   -1.3100   -3.0950 ca        1 REW     -0.036300
      7 C21         3.3480   -0.9130   -2.7690 ca        1 REW     -0.148000
      8 C22         5.2080   -0.9660   -4.4320 c3        1 REW     -0.049100
      9 C23         5.7150   -2.1610   -5.1900 cy        1 REW     -0.131700
     10 C24         6.0590   -1.9230   -6.7040 cy        1 REW     -0.008300
     11 C11        -2.3070    0.2840    7.1250 ca        1 REW     -0.140000
     12 C12        -1.9590    0.7010    5.8430 ca        1 REW     -0.093000
     13 C33         9.7520   -3.0310   -6.6110 ca        1 REW     -0.144500
     14 C36         5.6880   -0.5490   -7.3150 c         1 REW      0.918600
     15 O37         4.4660   -0.2390   -7.2390 o         1 REW     -0.816800
     16 N25         7.4590   -2.2550   -6.3560 n         1 REW     -0.373000
     17 C28         8.5980   -2.3950   -7.1350 ca        1 REW      0.082600
     18 C32        10.8850   -3.2030   -7.3950 ca        1 REW     -0.156000
     19 C31        10.8890   -2.7480   -8.7200 ca        1 REW      0.056100
     20 O34        12.0540   -3.0080   -9.4350 os        1 REW     -0.342900
     21 C35        12.2040   -2.2710  -10.6390 c3        1 REW      0.120700
     22 C30         9.7670   -2.1030   -9.2520 ca        1 REW     -0.156000
     23 C29         8.6360   -1.9190   -8.4680 ca        1 REW     -0.144500
     24 C26         7.2120   -2.4960   -5.0010 c         1 REW      0.697500
     25 O27         7.9380   -2.8560   -4.0710 o         1 REW     -0.643500
     26 O15         1.5260   -0.8040   -1.2840 os        1 REW     -0.341900
     27 C14         1.1240   -0.7200    0.0870 c3        1 REW      0.137400
     28 C3         -0.6150    0.4130    1.4420 cc        1 REW      0.248300
     29 N4         -0.8440   -0.5240    2.4660 nc        1 REW     -0.656000
     30 C5         -1.2230    0.1790    3.5370 cd        1 REW      0.538900
     31 O6         -1.2600    1.5670    3.2730 os        1 REW     -0.386800
     32 C2         -0.8680    1.6940    1.9350 cd        1 REW      0.166700
     33 C1         -0.8150    3.0470    1.3850 c3        1 REW     -0.128400
     34 C7         -1.5870   -0.2460    4.8770 ca        1 REW     -0.126500
     35 C10        -2.2870   -1.0720    7.4520 ca        1 REW     -0.117000
     36 C9         -1.9170   -2.0140    6.4930 ca        1 REW     -0.140000
     37 C8         -1.5670   -1.6090    5.2060 ca        1 REW     -0.093000
     38 H131       -0.0720    0.9800   -0.5420 hc        1 REW      0.069700
     39 H132       -0.9820   -0.5820   -0.4170 hc        1 REW      0.069700
     40 H17         3.2050   -2.1220    0.4500 ha        1 REW      0.126000
     41 H19         6.4450   -2.3090   -2.4110 ha        1 REW      0.165000
     42 H21         2.7200   -0.3810   -3.4990 ha        1 REW      0.156000
     43 H221        4.4220   -0.4640   -5.0720 hc        1 REW      0.096200
     44 H222        6.0390   -0.2200   -4.2960 hc        1 REW      0.096200
     45 H23         5.0650   -3.0520   -5.0280 hc        1 REW      0.072700
     46 H24         5.6220   -2.7130   -7.3680 h1        1 REW      0.051700
     47 H11        -2.5980    1.0280    7.8810 ha        1 REW      0.134000
     48 H12        -1.9740    1.7700    5.5810 ha        1 REW      0.153000
     49 H32        11.7770   -3.6950   -6.9860 ha        1 REW      0.128000
     50 H351       12.0700   -1.1760  -10.4630 h1        1 REW      0.032700
     51 H352       13.2520   -2.4950  -10.9620 h1        1 REW      0.032700
     52 H353       11.4760   -2.6290  -11.4090 h1        1 REW      0.032700
     53 H30         9.7700   -1.7230  -10.2830 ha        1 REW      0.128000
     54 H29         7.7690   -1.3550   -8.8650 ha        1 REW      0.173000
     55 H141        1.9010   -0.1790    0.6870 h1        1 REW      0.045700
     56 H142        0.9820   -1.7540    0.4970 h1        1 REW      0.045700
     57 H11A       -1.8510    3.4480    1.2440 hc        1 REW      0.062033
     58 H12A       -0.2640    3.7310    2.0790 hc        1 REW      0.062033
     59 H13        -0.2940    3.0320    0.3960 hc        1 REW      0.062033
     60 H10        -2.5610   -1.3970    8.4660 ha        1 REW      0.130000
     61 H9         -1.8990   -3.0840    6.7500 ha        1 REW      0.134000
     62 H8         -1.2750   -2.3560    4.4520 ha        1 REW      0.153000
     63 O38         6.5690    0.1400   -7.8880 o         1 REW     -0.816800
     64 H33         9.7570   -3.3820   -5.5660 ha        1 REW      0.173000
     65 H18         5.5150   -2.8170   -0.1500 ha        1 REW      0.122000
@<TRIPOS>BOND
     1    1   27 1   
     2    1   28 1   
     3    1   38 1   
     4    1   39 1   
     5    2    3 ar  
     6    2    5 ar  
     7    2   65 1   
     8    3    4 ar  
     9    3   40 1   
    10    4    7 ar  
    11    4   26 1   
    12    5    6 ar  
    13    5   41 1   
    14    6    7 ar  
    15    6    8 1   
    16    7   42 1   
    17    8    9 1   
    18    8   43 1   
    19    8   44 1   
    20    9   10 1   
    21    9   24 1   
    22    9   45 1   
    23   10   14 1   
    24   10   16 1   
    25   10   46 1   
    26   11   12 ar  
    27   11   35 ar  
    28   11   47 1   
    29   12   34 ar  
    30   12   48 1   
    31   13   17 ar  
    32   13   18 ar  
    33   13   64 1   
    34   14   15 1   
    35   14   63 1   
    36   16   17 1   
    37   16   24 1   
    38   17   23 ar  
    39   18   19 ar  
    40   18   49 1   
    41   19   20 1   
    42   19   22 ar  
    43   20   21 1   
    44   21   50 1   
    45   21   51 1   
    46   21   52 1   
    47   22   23 ar  
    48   22   53 1   
    49   23   54 1   
    50   24   25 2   
    51   26   27 1   
    52   27   55 1   
    53   27   56 1   
    54   28   29 1   
    55   28   32 2   
    56   29   30 2   
    57   30   31 1   
    58   30   34 1   
    59   31   32 1   
    60   32   33 1   
    61   33   57 1   
    62   33   58 1   
    63   33   59 1   
    64   34   37 ar  
    65   35   36 ar  
    66   35   60 1   
    67   36   37 ar  
    68   36   61 1   
    69   37   62 1   
@<TRIPOS>SUBSTRUCTURE
     1 REW         1 TEMP              0 ****  ****    0 ROOT
