@<TRIPOS>MOLECULE
REX
   51    50     1     0     0
SMALL
bcc


@<TRIPOS>ATOM
      1 C1           0.0000     0.0000     0.0000 c3         1 REX      -0.014400
      2 C2           1.5300     0.0000     0.0000 c3         1 REX      -0.043400
      3 C3          -0.5100     0.0000     1.4410 c3         1 REX      -0.098400
      4 C4           2.0400     0.0010    -1.4420 c3         1 REX      -0.020400
      5 C5          -2.0180    -0.0010     1.4420 c          1 REX       0.563100
      6 N1          -2.6920    -0.0000     2.6080 ns         1 REX      -0.162900
      7 O1          -2.6230    -0.0000     0.3910 o          1 REX      -0.665100
      8 C6          -4.1570    -0.0010     2.6070 c3         1 REX      -0.062300
      9 C7          -4.6600    -0.6020     3.8940 c          1 REX       0.541100
     10 C8          -4.6670     1.4360     2.4810 c3         1 REX      -0.013100
     11 O2          -3.8730    -0.9910     4.7300 o          1 REX      -0.704100
     12 N2          -5.9850    -0.7060     4.1170 ns         1 REX      -0.113900
     13 C9          -6.4740    -1.2900     5.3690 c3         1 REX      -0.109300
     14 C10          3.5710     0.0010    -1.4410 c3         1 REX      -0.149300
     15 C11         -6.5250    -2.8130     5.2350 c3         1 REX       0.008900
     16 C12         -7.8560    -0.7640     5.6620 c          1 REX       0.976600
     17 O3          -8.3780     0.0170     4.9030 o          1 REX      -0.888300
     18 O4          -8.5060    -1.1660     6.7660 o          1 REX      -0.888300
     19 N3           4.0590     1.2530    -0.8570 ns         1 REX       0.007100
     20 C13          4.0740    -0.1220    -2.8560 c          1 REX       1.004600
     21 C14          5.2800     1.3010    -0.2900 c          1 REX       0.513100
     22 C15          5.7820     2.5890     0.3110 c3         1 REX      -0.142200
     23 O5           5.9760     0.3080    -0.2630 o          1 REX      -0.677100
     24 N4           7.1280     2.3810     0.8610 nz         1 REX       0.113400
     25 O6           4.6180     0.8270    -3.3950 o          1 REX      -0.871800
     26 O7           3.9370    -1.1720    -3.4630 o          1 REX      -0.871800
     27 HC11        -0.3610     0.8840    -0.5110 hc         1 REX       0.033700
     28 HC12        -0.3610    -0.8840    -0.5110 hc         1 REX       0.033700
     29 HC21         1.8910     0.8840     0.5110 hc         1 REX      -0.001800
     30 HC22         1.8910    -0.8850     0.5100 hc         1 REX      -0.001800
     31 HC31        -0.1490    -0.8840     1.9520 hc         1 REX       0.020200
     32 HC32        -0.1500     0.8850     1.9520 hc         1 REX       0.020200
     33 HC41         1.6790     0.8860    -1.9520 hc         1 REX       0.040200
     34 HC42         1.6800    -0.8830    -1.9530 hc         1 REX       0.040200
     35 HN1         -2.1930     0.0040     3.4750 hn         1 REX       0.192500
     36 HC6         -4.5170    -0.5870     1.7700 h1         1 REX       0.062700
     37 HC81        -5.2840     1.5240     1.5950 hc         1 REX       0.013700
     38 HC82        -5.2540     1.6890     3.3560 hc         1 REX       0.013700
     39 HC83        -3.8250     2.1130     2.4040 hc         1 REX       0.013700
     40 HN2         -6.6350    -0.4100     3.4160 hn         1 REX       0.191500
     41 HC9         -5.8060    -1.0200     6.1780 h1         1 REX       0.053700
     42 H10          3.9320    -0.8350    -0.8550 h1         1 REX       0.063700
     43 H111        -7.5420    -3.1550     5.3820 hc         1 REX       0.000033
     44 H112        -6.1860    -3.1000     4.2470 hc         1 REX       0.000033
     45 H113        -5.8810    -3.2630     5.9820 hc         1 REX       0.000033
     46 HN3          3.5020     2.0830    -0.9170 hn         1 REX       0.158500
     47 H151         5.1130     2.9020     1.1040 hx         1 REX       0.082200
     48 H152         5.8190     3.3550    -0.4540 hx         1 REX       0.082200
     49 HN41         7.7470     2.0930     0.1280 hn         1 REX       0.218800
     50 HN42         7.0950     1.6720     1.5660 hn         1 REX       0.218800
     51 HN43         7.4610     3.2350     1.2620 hn         1 REX       0.218800
@<TRIPOS>BOND
     1     1     2 1   
     2     1     3 1   
     3     1    27 1   
     4     1    28 1   
     5     2     4 1   
     6     2    29 1   
     7     2    30 1   
     8     3     5 1   
     9     3    31 1   
    10     3    32 1   
    11     4    14 1   
    12     4    33 1   
    13     4    34 1   
    14     5     6 1   
    15     5     7 2   
    16     6     8 1   
    17     6    35 1   
    18     8     9 1   
    19     8    10 1   
    20     8    36 1   
    21     9    11 2   
    22     9    12 1   
    23    10    37 1   
    24    10    38 1   
    25    10    39 1   
    26    12    13 1   
    27    12    40 1   
    28    13    15 1   
    29    13    16 1   
    30    13    41 1   
    31    14    19 1   
    32    14    20 1   
    33    14    42 1   
    34    15    43 1   
    35    15    44 1   
    36    15    45 1   
    37    16    17 1   
    38    16    18 1   
    39    19    21 1   
    40    19    46 1   
    41    20    25 1   
    42    20    26 1   
    43    21    22 1   
    44    21    23 2   
    45    22    24 1   
    46    22    47 1   
    47    22    48 1   
    48    24    49 1   
    49    24    50 1   
    50    24    51 1   
@<TRIPOS>SUBSTRUCTURE
     1 REX         1 TEMP              0 ****  ****    0 ROOT
