@<TRIPOS>MOLECULE
REY
   41    40     1     0     0
SMALL
bcc


@<TRIPOS>ATOM
      1 C1           0.0000     0.0000     0.0000 c3         1 REY      -0.013400
      2 C2           1.5300     0.0000     0.0000 c3         1 REY      -0.044400
      3 C3          -0.5100     0.0000     1.4430 c3         1 REY      -0.102400
      4 C4           2.0390    -0.0000    -1.4430 c3         1 REY      -0.020400
      5 C5          -2.0170    -0.0000     1.4430 c          1 REY       0.548100
      6 N1          -2.6910    -0.0010     2.6100 ns         1 REY      -0.141900
      7 O1          -2.6230    -0.0010     0.3920 o          1 REY      -0.687100
      8 C6          -4.1550    -0.0010     2.6100 c3         1 REY      -0.103300
      9 C7          -4.6580    -0.6010     3.8980 c          1 REY       0.977600
     10 C8          -4.6660     1.4360     2.4850 c3         1 REY       0.005900
     11 O2          -5.9770    -0.7050     4.1210 o          1 REY      -0.892300
     12 C9           3.5690    -0.0000    -1.4430 c3         1 REY      -0.151300
     13 N3           4.0580     1.2520    -0.8600 ns         1 REY       0.011100
     14 C10          4.0720    -0.1240    -2.8580 c          1 REY       1.001600
     15 C11          5.2800     1.3000    -0.2930 c          1 REY       0.503100
     16 C12          5.7820     2.5880     0.3070 c3         1 REY      -0.142200
     17 O3           5.9760     0.3070    -0.2670 o          1 REY      -0.678100
     18 N4           7.1290     2.3800     0.8560 nz         1 REY       0.114400
     19 O4           4.2740     0.8780    -3.5230 o          1 REY      -0.870300
     20 O5           4.2750    -1.2260    -3.3380 o          1 REY      -0.870300
     21 O6          -3.8730    -0.9890     4.7300 o          1 REY      -0.892300
     22 HC11        -0.3610     0.8850    -0.5110 hc         1 REY       0.032700
     23 HC12        -0.3610    -0.8850    -0.5110 hc         1 REY       0.032700
     24 HC21         1.8910     0.8850     0.5100 hc         1 REY      -0.002800
     25 HC22         1.8910    -0.8840     0.5110 hc         1 REY      -0.002800
     26 HC31        -0.1490    -0.8840     1.9540 hc         1 REY       0.015700
     27 HC32        -0.1490     0.8850     1.9540 hc         1 REY       0.015700
     28 HC41         1.6780     0.8840    -1.9530 hc         1 REY       0.038700
     29 HC42         1.6780    -0.8850    -1.9530 hc         1 REY       0.038700
     30 HN1         -2.1900    -0.0240     3.4770 hn         1 REY       0.185500
     31 HC6         -4.5160    -0.5870     1.7740 h1         1 REY       0.055700
     32 HC81        -5.3590     1.6440     3.2910 hc         1 REY      -0.001633
     33 HC82        -3.8300     2.1220     2.5420 hc         1 REY      -0.001633
     34 HC83        -5.1700     1.5580     1.5340 hc         1 REY      -0.001633
     35 HC9          3.9310    -0.8370    -0.8570 h1         1 REY       0.065700
     36 HN3          3.5030     2.0830    -0.9240 hn         1 REY       0.161500
     37 H121         5.1130     2.9010     1.1000 hx         1 REY       0.082200
     38 H122         5.8170     3.3530    -0.4580 hx         1 REY       0.082200
     39 HN41         7.7470     2.0950     0.1230 hn         1 REY       0.217800
     40 HN42         7.0970     1.6700     1.5600 hn         1 REY       0.217800
     41 HN43         7.4600     3.2350     1.2580 hn         1 REY       0.217800
@<TRIPOS>BOND
     1     1     2 1   
     2     1     3 1   
     3     1    22 1   
     4     1    23 1   
     5     2     4 1   
     6     2    24 1   
     7     2    25 1   
     8     3     5 1   
     9     3    26 1   
    10     3    27 1   
    11     4    12 1   
    12     4    28 1   
    13     4    29 1   
    14     5     6 1   
    15     5     7 2   
    16     6     8 1   
    17     6    30 1   
    18     8     9 1   
    19     8    10 1   
    20     8    31 1   
    21     9    11 1   
    22     9    21 1   
    23    10    32 1   
    24    10    33 1   
    25    10    34 1   
    26    12    13 1   
    27    12    14 1   
    28    12    35 1   
    29    13    15 1   
    30    13    36 1   
    31    14    19 1   
    32    14    20 1   
    33    15    16 1   
    34    15    17 2   
    35    16    18 1   
    36    16    37 1   
    37    16    38 1   
    38    18    39 1   
    39    18    40 1   
    40    18    41 1   
@<TRIPOS>SUBSTRUCTURE
     1 REY         1 TEMP              0 ****  ****    0 ROOT
