@<TRIPOS>MOLECULE
molecule
   34    33     1     0     0
SMALL
bcc


@<TRIPOS>ATOM
      1 CA1          0.0000     0.0000     0.0000 c3         1 REZ      -0.168400
      2 CB1          1.5280     0.0000     0.0000 c3         1 REZ      -0.064400
      3 CG1          2.1120     0.0000     1.4180 c3         1 REZ      -0.087400
      4 CD1          3.6460     0.0330     1.3810 c3         1 REZ      -0.078400
      5 CE1          4.3250     0.0930     2.7570 c3         1 REZ      -0.010500
      6 NZ1          3.9430     1.2790     3.5240 nz         1 REZ      -0.794600
      7 CZ1          4.0240    -1.1320     3.6020 c          1 REZ       0.866600
      8 OH1          4.4570    -2.2770     3.0100 o          1 REZ      -0.779800
      9 OH2          3.4630    -1.1240     4.6910 o          1 REZ      -0.779800
     10 C1          -0.6130    -0.0740    -1.3890 c          1 REZ       0.659100
     11 O1           0.0560    -0.1470    -2.4170 o          1 REZ      -0.630100
     12 N           -1.9990    -0.0710    -1.3370 ns         1 REZ      -0.561900
     13 CA          -2.8350    -0.1560    -2.5120 c3         1 REZ       0.006700
     14 CB          -3.1510     1.2460    -3.0040 c3         1 REZ      -0.092100
     15 C           -4.0830    -0.9070    -2.1260 c          1 REZ       0.884600
     16 O           -4.5490    -1.6290    -3.1780 o          1 REZ      -0.842800
     17 OXT         -4.6360    -0.8780    -1.0350 o          1 REZ      -0.842800
     18 HA11        -0.3450     0.9070     0.4820 hc         1 REZ       0.054200
     19 HA12        -0.3450    -0.8510     0.5750 hc         1 REZ       0.054200
     20 HB11         1.8790     0.8810    -0.5230 hc         1 REZ       0.052700
     21 HB12         1.8790    -0.8810    -0.5230 hc         1 REZ       0.052700
     22 HG11         1.7500     0.8710     1.9510 hc         1 REZ       0.041200
     23 HG12         1.7880    -0.8950     1.9360 hc         1 REZ       0.041200
     24 HD11         3.9940    -0.8550     0.8680 hc         1 REZ       0.068700
     25 HD12         3.9540     0.9010     0.8100 hc         1 REZ       0.068700
     26 HE1          5.3960     0.1320     2.5970 hx         1 REZ       0.091700
     27 HZ11         4.0100     2.0900     2.9410 hn         1 REZ       0.435467
     28 HZ12         4.5550     1.3810     4.3090 hn         1 REZ       0.435467
     29 H           -2.4410    -0.0060    -0.4420 hn         1 REZ       0.323500
     30 HA          -2.3120    -0.7010    -3.2880 h1         1 REZ       0.082700
     31 HBC1        -3.5300     1.8410    -2.1810 hc         1 REZ       0.025700
     32 HBC2        -2.2490     1.7030    -3.3940 hc         1 REZ       0.025700
     33 HBC3        -3.8980     1.1950    -3.7860 hc         1 REZ       0.025700
     34 HZ13         3.0010     1.1780     3.8470 hn         1 REZ       0.435467
@<TRIPOS>BOND
     1     1     2 1
     2     1    10 1
     3     1    18 1
     4     1    19 1
     5     2     3 1
     6     2    20 1
     7     2    21 1
     8     3     4 1
     9     3    22 1
    10     3    23 1
    11     4     5 1
    12     4    24 1
    13     4    25 1
    14     5     6 1
    15     5     7 1
    16     5    26 1
    17     6    27 1
    18     6    28 1
    19     7     8 1
    20     7     9 1
    21    10    11 2
    22    10    12 1
    23    12    13 1
    24    12    29 1
    25    13    14 1
    26    13    15 1
    27    13    30 1
    28    14    31 1
    29    14    32 1
    30    14    33 1
    31    15    16 1
    32    15    17 1
    33    34     6 1
@<TRIPOS>SUBSTRUCTURE
     1 REZ         1 TEMP              0 ****  ****    0 ROOT
