@<TRIPOS>MOLECULE
RF1
   44    46     1     0     0
SMALL
bcc


@<TRIPOS>ATOM
      1 C14        -0.2540    0.3310   -0.5060 c3        1 RF1     -0.114100
      2 C10         1.2480    0.2170   -0.3060 c3        1 RF1      0.185800
      3 C15         1.5970   -0.1540    1.1250 c3        1 RF1     -0.114100
      4 C16         1.8370   -0.8030   -1.2790 c3        1 RF1     -0.114100
      5 O2          1.9120    1.4480   -0.7000 os        1 RF1     -0.446900
      6 C3          1.6780    2.5980    0.0140 c         1 RF1      0.733100
      7 O3          0.8030    2.6220    0.8960 o         1 RF1     -0.585000
      8 N3          2.5530    3.6510   -0.2930 n         1 RF1     -0.410800
      9 C7          2.1300    4.9830    0.1020 c3        1 RF1      0.073000
     10 C12         1.4880    5.8040   -1.0170 c3        1 RF1     -0.110400
     11 C6          3.3280    3.6110   -1.5170 c3        1 RF1      0.073000
     12 C13         2.7150    4.3880   -2.6840 c3        1 RF1     -0.110400
     13 C5          2.3800    5.8120   -2.2530 c3        1 RF1     -0.092000
     14 C2          1.7120    6.5400   -3.3630 cc        1 RF1      0.509700
     15 N1          2.0170    7.6500   -4.0270 nd        1 RF1     -0.690000
     16 O1          0.4890    6.0000   -3.8680 os        1 RF1     -0.142100
     17 N2          0.0520    6.7740   -4.8340 nc        1 RF1     -0.363300
     18 C1          0.9470    7.7930   -4.9690 cd        1 RF1      0.623500
     19 C4          0.8760    8.8810   -5.9060 cd        1 RF1     -0.191600
     20 C8         -0.1340    9.0710   -6.8410 cc        1 RF1     -0.110000
     21 C11         0.0930   10.2440   -7.6160 cc        1 RF1     -0.165000
     22 C9          1.2570   10.8850   -7.2350 cd        1 RF1     -0.182100
     23 S1          2.0310   10.0970   -5.9980 ss        1 RF1      0.119200
     24 H14        -0.4760    0.7110   -1.5320 hc        1 RF1      0.052256
     25 H14A       -0.7220   -0.6740   -0.3820 hc        1 RF1      0.052256
     26 H14B       -0.6970    1.0330    0.2410 hc        1 RF1      0.052256
     27 H15         1.1200    0.5570    1.8420 hc        1 RF1      0.052256
     28 H15A        2.7040   -0.1240    1.2690 hc        1 RF1      0.052256
     29 H15B        1.2300   -1.1860    1.3400 hc        1 RF1      0.052256
     30 H16         1.6130   -0.5070   -2.3310 hc        1 RF1      0.052256
     31 H16A        1.3870   -1.8030   -1.0740 hc        1 RF1      0.052256
     32 H16B        2.9440   -0.8630   -1.1520 hc        1 RF1      0.052256
     33 H7          3.0570    5.5160    0.4620 h1        1 RF1      0.073200
     34 H7A         1.4070    4.9050    0.9630 h1        1 RF1      0.073200
     35 H12         0.4830    5.3820   -1.2810 hc        1 RF1      0.067950
     36 H12A        1.3350    6.8510   -0.6490 hc        1 RF1      0.067950
     37 H6          3.4920    2.5430   -1.8330 h1        1 RF1      0.073200
     38 H6A         4.3330    4.0630   -1.2700 h1        1 RF1      0.073200
     39 H13         3.4500    4.4060   -3.5280 hc        1 RF1      0.067950
     40 H13A        1.7850    3.8770   -3.0470 hc        1 RF1      0.067950
     41 H5          3.3400    6.3530   -2.0060 hc        1 RF1      0.086700
     42 H8         -0.9960    8.4120   -6.9730 ha        1 RF1      0.168000
     43 H11        -0.5810   10.5790   -8.4080 ha        1 RF1      0.158000
     44 H9          1.6380   11.8020   -7.6830 h4        1 RF1      0.174000
@<TRIPOS>BOND
     1    1    2 1   
     2    1   24 1   
     3    1   25 1   
     4    1   26 1   
     5    2    3 1   
     6    2    4 1   
     7    2    5 1   
     8    3   27 1   
     9    3   28 1   
    10    3   29 1   
    11    4   30 1   
    12    4   31 1   
    13    4   32 1   
    14    5    6 1   
    15    6    7 2   
    16    6    8 1   
    17    8    9 1   
    18    8   11 1   
    19    9   10 1   
    20    9   33 1   
    21    9   34 1   
    22   10   13 1   
    23   10   35 1   
    24   10   36 1   
    25   11   12 1   
    26   11   37 1   
    27   11   38 1   
    28   12   13 1   
    29   12   39 1   
    30   12   40 1   
    31   13   14 1   
    32   13   41 1   
    33   14   15 2   
    34   14   16 1   
    35   15   18 1   
    36   16   17 1   
    37   17   18 2   
    38   18   19 1   
    39   19   20 2   
    40   19   23 1   
    41   20   21 1   
    42   20   42 1   
    43   21   22 2   
    44   21   43 1   
    45   22   23 1   
    46   22   44 1   
@<TRIPOS>SUBSTRUCTURE
     1 RF1         1 TEMP              0 ****  ****    0 ROOT
