@<TRIPOS>MOLECULE
molecule
   28    30     1     0     0
SMALL
bcc


@<TRIPOS>ATOM
      1 C6           0.0000     0.0000     0.0000 ca         1 RF2      -0.080000
      2 C5           1.3800     0.0000     0.0000 ca         1 RF2      -0.167500
      3 C4           2.0750     0.0000     1.1990 ca         1 RF2       0.144900
      4 F            3.4250    -0.0000     1.1940 f          1 RF2      -0.135900
      5 C3           1.3890     0.0010     2.4030 ca         1 RF2      -0.167500
      6 C8           0.0100     0.0010     2.4140 ca         1 RF2      -0.080000
      7 C7          -0.6950    -0.0000     1.2100 ca         1 RF2      -0.132500
      8 C2          -2.1740    -0.0000     1.2160 cc         1 RF2       0.421000
      9 N3          -2.9820    -0.0010     2.3210 na         1 RF2      -0.432700
     10 N2          -2.9580     0.0050     0.1600 nd         1 RF2      -0.344000
     11 N1          -4.1900     0.0010     0.5290 nd         1 RF2      -0.344000
     12 C1          -4.2650    -0.0010     1.8420 cc         1 RF2       0.427000
     13 C9          -5.5040    -0.0050     2.6490 ca         1 RF2      -0.120500
     14 C10         -5.4310    -0.0030     4.0440 ca         1 RF2      -0.103500
     15 C11         -6.5900    -0.0070     4.7910 ca         1 RF2      -0.127500
     16 C12         -7.8230    -0.0130     4.1620 ca         1 RF2      -0.116000
     17 C13         -7.9020    -0.0150     2.7810 ca         1 RF2      -0.127500
     18 C14         -6.7500    -0.0050     2.0220 ca         1 RF2      -0.103500
     19 H6          -0.5430    -0.0000    -0.9380 ha         1 RF2       0.146000
     20 H5           1.9210     0.0000    -0.9390 ha         1 RF2       0.151000
     21 H3           1.9370     0.0010     3.3380 ha         1 RF2       0.151000
     22 H8          -0.5250     0.0010     3.3570 ha         1 RF2       0.146000
     23 H10         -4.4670     0.0020     4.5370 ha         1 RF2       0.139000
     24 H11         -6.5360    -0.0050     5.8730 ha         1 RF2       0.136000
     25 H12         -8.7300    -0.0180     4.7540 ha         1 RF2       0.133000
     26 H13         -8.8700    -0.0180     2.2950 ha         1 RF2       0.136000
     27 H14         -6.8130    -0.0070     0.9400 ha         1 RF2       0.139000
     28 HN3         -2.6950    -0.0030     3.2800 hn         1 RF2       0.310700
@<TRIPOS>BOND
     1     1     7 ar
     2     1     2 ar
     3     1    19 1
     4     2     3 ar
     5     2    20 1
     6     3     5 ar
     7     3     4 1
     8     6     5 ar
     9     5    21 1
    10     7     6 ar
    11     6    22 1
    12     8     7 1
    13    10     8 2
    14     8     9 1
    15    12     9 1
    16    11    10 1
    17    11    12 2
    18    13    12 1
    19    14    13 ar
    20    13    18 ar
    21    15    14 ar
    22    14    23 1
    23    15    16 ar
    24    15    24 1
    25    16    17 ar
    26    16    25 1
    27    17    18 ar
    28    17    26 1
    29    18    27 1
    30     9    28 1
@<TRIPOS>SUBSTRUCTURE
     1 RF2         1 TEMP              0 ****  ****    0 ROOT
