@<TRIPOS>MOLECULE
RF2
   28    30     1     0     0
SMALL
bcc


@<TRIPOS>ATOM
      1 C6         -0.0230   -0.1230    0.0080 ca        1 RF2     -0.081500
      2 C5          1.3610   -0.2510   -0.0090 ca        1 RF2     -0.168000
      3 C4          2.0840   -0.1660    1.1950 ca        1 RF2      0.137900
      4 F           3.4310   -0.2940    1.1870 f         1 RF2     -0.135900
      5 C3          1.4090    0.0540    2.4110 ca        1 RF2     -0.168000
      6 C8          0.0250    0.1830    2.4130 ca        1 RF2     -0.081500
      7 C7         -0.7010    0.0910    1.2170 ca        1 RF2     -0.135500
      8 C2         -2.1510    0.2240    1.2070 cc        1 RF2      0.413000
      9 N3         -2.9870   -0.0250    2.3080 na        1 RF2     -0.429700
     10 N2         -2.9510    0.6010    0.1500 nd        1 RF2     -0.336000
     11 N1         -4.2040    0.5990    0.5260 nd        1 RF2     -0.337000
     12 C1         -4.2910    0.2200    1.8480 cc        1 RF2      0.420000
     13 C9         -5.4950    0.0810    2.6560 ca        1 RF2     -0.124500
     14 C10        -5.4410    0.1800    4.0530 ca        1 RF2     -0.104500
     15 C11        -6.6050    0.0440    4.8070 ca        1 RF2     -0.130500
     16 C12        -7.8270   -0.1870    4.1750 ca        1 RF2     -0.116000
     17 C13        -7.8850   -0.2780    2.7850 ca        1 RF2     -0.130500
     18 C14        -6.7250   -0.1450    2.0220 ca        1 RF2     -0.104500
     19 H6         -0.5860   -0.1860   -0.9380 ha        1 RF2      0.148000
     20 H5          1.8970   -0.4180   -0.9560 ha        1 RF2      0.154000
     21 H3          1.9820    0.1270    3.3460 ha        1 RF2      0.154000
     22 H8         -0.4860    0.3740    3.3690 ha        1 RF2      0.148000
     23 H10        -4.4900    0.3800    4.5680 ha        1 RF2      0.141500
     24 H11        -6.5590    0.1230    5.9030 ha        1 RF2      0.137500
     25 H12        -8.7450   -0.2930    4.7730 ha        1 RF2      0.136000
     26 H13        -8.8480   -0.4550    2.2840 ha        1 RF2      0.137500
     27 H14        -6.7770   -0.2150    0.9240 ha        1 RF2      0.141500
     28 HN3        -2.7190   -0.3350    3.2040 hn        1 RF2      0.312700
@<TRIPOS>BOND
     1    1    2 ar  
     2    1    7 ar  
     3    1   19 1   
     4    2    3 ar  
     5    2   20 1   
     6    3    4 1   
     7    3    5 ar  
     8    5    6 ar  
     9    5   21 1   
    10    6    7 ar  
    11    6   22 1   
    12    7    8 1   
    13    8    9 1   
    14    8   10 2   
    15    9   12 1   
    16    9   28 1   
    17   10   11 1   
    18   11   12 2   
    19   12   13 1   
    20   13   14 ar  
    21   13   18 ar  
    22   14   15 ar  
    23   14   23 1   
    24   15   16 ar  
    25   15   24 1   
    26   16   17 ar  
    27   16   25 1   
    28   17   18 ar  
    29   17   26 1   
    30   18   27 1   
@<TRIPOS>SUBSTRUCTURE
     1 RF2         1 TEMP              0 ****  ****    0 ROOT
