@<TRIPOS>MOLECULE
RF3
   41    44     1     0     0
SMALL
bcc


@<TRIPOS>ATOM
      1 C40         0.1140    0.0140    0.2300 cc        1 RF3     -0.141000
      2 C38         1.5270    0.0740    0.4260 cc        1 RF3     -0.156000
      3 C36         1.8530    0.0380    1.7660 cd        1 RF3     -0.169100
      4 S35         0.4990   -0.0720    2.7290 ss        1 RF3      0.046200
      5 C01        -0.5700   -0.0670    1.4300 cd        1 RF3     -0.118400
      6 C02        -2.0320   -0.1080    1.5720 c3        1 RF3     -0.063100
      7 C05        -2.5940   -1.5230    1.6160 c         1 RF3      0.652100
      8 O07        -1.8610   -2.5220    1.7370 o         1 RF3     -0.581100
      9 N06        -3.9740   -1.6960    1.4480 n         1 RF3     -0.465800
     10 C19        -4.5420   -3.0220    1.5860 c3        1 RF3      0.082500
     11 C16        -5.3410   -3.2290    2.8740 c3        1 RF3     -0.106400
     12 C08        -4.9220   -0.6280    1.6590 c3        1 RF3      0.082500
     13 C11        -5.7320   -0.7550    2.9530 c3        1 RF3     -0.106400
     14 C14        -6.3850   -2.1290    3.0360 c3        1 RF3     -0.090000
     15 C22        -7.0970   -2.2850    4.3310 cc        1 RF3      0.509700
     16 N26        -8.3510   -2.5960    4.6400 nd        1 RF3     -0.690000
     17 O23        -6.3460   -2.0790    5.5290 os        1 RF3     -0.143100
     18 N24        -7.1360   -2.2640    6.5610 nc        1 RF3     -0.363300
     19 C25        -8.3680   -2.5810    6.0720 cd        1 RF3      0.623500
     20 C27        -9.5490   -2.8680    6.8390 cd        1 RF3     -0.192600
     21 C28        -9.6260   -2.8670    8.2270 cc        1 RF3     -0.109000
     22 C30       -10.9390   -3.1930    8.6720 cc        1 RF3     -0.165000
     23 C32       -11.7910   -3.4250    7.6080 cd        1 RF3     -0.182100
     24 S34       -11.0300   -3.2540    6.1460 ss        1 RF3      0.119200
     25 H40        -0.3540    0.0290   -0.7570 ha        1 RF3      0.152000
     26 H38         2.2420    0.1400   -0.3950 ha        1 RF3      0.153000
     27 H36         2.8630    0.0710    2.1700 h4        1 RF3      0.171000
     28 H02        -2.3420    0.4120    2.5210 hc        1 RF3      0.072200
     29 H02A       -2.4920    0.4450    0.7060 hc        1 RF3      0.072200
     30 H19        -3.7190   -3.7910    1.5410 h1        1 RF3      0.062950
     31 H19A       -5.2270   -3.1830    0.7040 h1        1 RF3      0.062950
     32 H16        -5.8440   -4.2290    2.8260 hc        1 RF3      0.066200
     33 H16A       -4.6550   -3.2290    3.7610 hc        1 RF3      0.066200
     34 H08        -4.4110    0.3730    1.6590 h1        1 RF3      0.062950
     35 H08A       -5.6410   -0.6440    0.7870 h1        1 RF3      0.062950
     36 H11        -5.0700   -0.6000    3.8450 hc        1 RF3      0.066200
     37 H11A       -6.5170    0.0430    2.9630 hc        1 RF3      0.066200
     38 H14        -7.1430   -2.2230    2.2040 hc        1 RF3      0.087700
     39 H28        -8.7930   -2.6460    8.8990 ha        1 RF3      0.168000
     40 H30       -11.2170   -3.2480    9.7260 ha        1 RF3      0.158000
     41 H32       -12.8440   -3.6910    7.7010 h4        1 RF3      0.174000
@<TRIPOS>BOND
     1    1    2 1   
     2    1    5 2   
     3    1   25 1   
     4    2    3 2   
     5    2   26 1   
     6    3    4 1   
     7    3   27 1   
     8    4    5 1   
     9    5    6 1   
    10    6    7 1   
    11    6   28 1   
    12    6   29 1   
    13    7    8 2   
    14    7    9 1   
    15    9   10 1   
    16    9   12 1   
    17   10   11 1   
    18   10   30 1   
    19   10   31 1   
    20   11   14 1   
    21   11   32 1   
    22   11   33 1   
    23   12   13 1   
    24   12   34 1   
    25   12   35 1   
    26   13   14 1   
    27   13   36 1   
    28   13   37 1   
    29   14   15 1   
    30   14   38 1   
    31   15   16 2   
    32   15   17 1   
    33   16   19 1   
    34   17   18 1   
    35   18   19 2   
    36   19   20 1   
    37   20   21 2   
    38   20   24 1   
    39   21   22 1   
    40   21   39 1   
    41   22   23 2   
    42   22   40 1   
    43   23   24 1   
    44   23   41 1   
@<TRIPOS>SUBSTRUCTURE
     1 RF3         1 TEMP              0 ****  ****    0 ROOT
