@<TRIPOS>MOLECULE
RF4
   44    46     1     0     0
SMALL
bcc


@<TRIPOS>ATOM
      1 C01        -0.3920   -0.0090    0.0750 ca        1 RF4     -0.081800
      2 C02         0.9540    0.0120   -0.3050 ca        1 RF4     -0.132500
      3 C03         1.9640   -0.0210    0.6530 ca        1 RF4     -0.136000
      4 C04         1.6440   -0.0730    2.0080 ca        1 RF4     -0.132500
      5 C05         0.3100   -0.0980    2.4240 ca        1 RF4     -0.081800
      6 C06        -0.7030   -0.0660    1.4460 ca        1 RF4      0.096100
      7 O07        -2.0230    0.0180    1.8710 os        1 RF4     -0.346900
      8 C08        -2.7470   -1.2210    1.7290 c3        1 RF4      0.137400
      9 C09        -1.4540    0.0280   -0.9570 c3        1 RF4     -0.054300
     10 C10        -0.0280   -0.1340    3.8650 c3        1 RF4     -0.054300
     11 C11        -4.2140   -0.8590    1.7850 c3        1 RF4     -0.043300
     12 S12        -5.0880   -2.3950    1.8260 ss        1 RF4     -0.128300
     13 C13        -6.6900   -1.9380    1.4610 cc        1 RF4      0.377700
     14 N14        -7.6730   -2.9060    1.1730 na        1 RF4     -0.072300
     15 C15        -8.8540   -2.1960    0.9380 ca        1 RF4     -0.061200
     16 C16        -8.5180   -0.7870    1.0880 ca        1 RF4      0.059400
     17 N17        -7.1620   -0.6640    1.4140 nd        1 RF4     -0.618100
     18 C18       -10.1570   -2.6030    0.6070 ca        1 RF4     -0.095000
     19 C19       -11.1080   -1.6120    0.4400 ca        1 RF4     -0.153000
     20 C20       -10.7970   -0.2450    0.5890 ca        1 RF4     -0.161000
     21 C21        -9.5210    0.1820    0.9050 ca        1 RF4     -0.102000
     22 C22        -7.4860   -4.3260    1.2590 c3        1 RF4     -0.112700
     23 C23        -8.0500   -5.1620    0.0580 c         1 RF4      0.919600
     24 O24        -7.2260   -5.5050   -0.8250 o         1 RF4     -0.814300
     25 O25        -9.2680   -5.4820    0.1050 o         1 RF4     -0.814300
     26 H1          1.2110    0.0570   -1.3740 ha        1 RF4      0.128500
     27 H2          3.0170   -0.0060    0.3390 ha        1 RF4      0.125000
     28 H3          2.4450   -0.0970    2.7610 ha        1 RF4      0.128500
     29 H4         -2.4860   -1.7110    0.7540 h1        1 RF4      0.048700
     30 H5         -2.4530   -1.8920    2.5790 h1        1 RF4      0.048700
     31 H6         -2.4230    0.3780   -0.5190 hc        1 RF4      0.049533
     32 H7         -1.1700    0.7180   -1.7890 hc        1 RF4      0.049533
     33 H8         -1.6100   -0.9940   -1.3860 hc        1 RF4      0.049533
     34 H9         -1.0040   -0.6550    4.0270 hc        1 RF4      0.049533
     35 H10         0.7660   -0.6600    4.4490 hc        1 RF4      0.049533
     36 H11        -0.1250    0.9100    4.2570 hc        1 RF4      0.049533
     37 H12        -4.4340   -0.2460    2.6920 h1        1 RF4      0.090700
     38 H13        -4.4960   -0.2430    0.8960 h1        1 RF4      0.090700
     39 H14       -10.3780   -3.6780    0.4660 ha        1 RF4      0.203000
     40 H15       -12.1380   -1.8950    0.1770 ha        1 RF4      0.117000
     41 H16       -11.5950    0.4970    0.4430 ha        1 RF4      0.108000
     42 H17        -9.2830    1.2480    1.0120 ha        1 RF4      0.124000
     43 H18        -6.3780   -4.5250    1.3250 h1        1 RF4      0.047700
     44 H19        -7.9870   -4.6940    2.1980 h1        1 RF4      0.047700
@<TRIPOS>BOND
     1    1    2 ar  
     2    1    6 ar  
     3    1    9 1   
     4    2    3 ar  
     5    2   26 1   
     6    3    4 ar  
     7    3   27 1   
     8    4    5 ar  
     9    4   28 1   
    10    5    6 ar  
    11    5   10 1   
    12    6    7 1   
    13    7    8 1   
    14    8   11 1   
    15    8   29 1   
    16    8   30 1   
    17    9   31 1   
    18    9   32 1   
    19    9   33 1   
    20   10   34 1   
    21   10   35 1   
    22   10   36 1   
    23   11   12 1   
    24   11   37 1   
    25   11   38 1   
    26   12   13 1   
    27   13   14 1   
    28   13   17 2   
    29   14   15 1   
    30   14   22 1   
    31   15   16 ar  
    32   15   18 ar  
    33   16   17 1   
    34   16   21 ar  
    35   18   19 ar  
    36   18   39 1   
    37   19   20 ar  
    38   19   40 1   
    39   20   21 ar  
    40   20   41 1   
    41   21   42 1   
    42   22   23 1   
    43   22   43 1   
    44   22   44 1   
    45   23   24 1   
    46   23   25 1   
@<TRIPOS>SUBSTRUCTURE
     1 RF4         1 TEMP              0 ****  ****    0 ROOT
