@<TRIPOS>MOLECULE
molecule
   44    46     1     0     0
SMALL
bcc


@<TRIPOS>ATOM
      1 C01          0.0000     0.0000     0.0000 ca         1 RF4      -0.093800
      2 C02          1.3810     0.0000     0.0000 ca         1 RF4      -0.129000
      3 C03          2.0740     0.0000     1.1960 ca         1 RF4      -0.135000
      4 C04          1.3860     0.0000     2.3960 ca         1 RF4      -0.129000
      5 C05          0.0050    -0.0000     2.4020 ca         1 RF4      -0.093800
      6 C06         -0.6930    -0.0000     1.2020 ca         1 RF4       0.116100
      7 O07         -2.0510     0.0000     1.2040 os         1 RF4      -0.352900
      8 C08         -2.7010    -1.2720     1.2050 c3         1 RF4       0.155400
      9 C09         -0.7540     0.0060    -1.3050 c3         1 RF4      -0.046300
     10 C10         -0.7450     0.0010     3.7090 c3         1 RF4      -0.046300
     11 C11         -4.2180    -1.0710     1.2080 c3         1 RF4      -0.013300
     12 S12         -5.0400    -2.6840     1.2090 ss         1 RF4      -0.155300
     13 C13         -6.7250    -2.1680     1.2120 cc         1 RF4       0.462700
     14 N14         -7.8030    -3.0070     1.2200 na         1 RF4      -0.077300
     15 C15         -8.9390    -2.2160     1.2200 ca         1 RF4      -0.048200
     16 C16         -8.4900    -0.8850     1.2120 ca         1 RF4       0.098400
     17 N17         -7.1310    -0.9220     1.2130 nd         1 RF4      -0.655100
     18 C18        -10.2990    -2.4860     1.2260 ca         1 RF4      -0.097000
     19 C19        -11.2060    -1.4460     1.2240 ca         1 RF4      -0.160000
     20 C20        -10.7680    -0.1310     1.2150 ca         1 RF4      -0.164000
     21 C21         -9.4210     0.1560     1.2100 ca         1 RF4      -0.090000
     22 C22         -7.7640    -4.4720     1.2260 c3         1 RF4      -0.078700
     23 C23         -7.7550    -4.9800    -0.1930 c          1 RF4       0.873600
     24 O24         -7.7790    -4.1990    -1.1140 o          1 RF4      -0.822300
     25 O25         -7.7200    -6.3000    -0.4330 o          1 RF4      -0.822300
     26 H1           1.9220     0.0000    -0.9380 ha         1 RF4       0.127000
     27 H2           3.1570     0.0000     1.1940 ha         1 RF4       0.123000
     28 H3           1.9310     0.0000     3.3320 ha         1 RF4       0.127000
     29 H4          -2.4080    -1.8260     2.0900 h1         1 RF4       0.037200
     30 H5          -2.4110    -1.8260     0.3210 h1         1 RF4       0.037200
     31 H6          -0.1030     0.3570    -2.0970 hc         1 RF4       0.047533
     32 H7          -1.0900    -0.9990    -1.5320 hc         1 RF4       0.047533
     33 H8          -1.6110     0.6630    -1.2240 hc         1 RF4       0.047533
     34 H9          -1.6050     0.6540     3.6320 hc         1 RF4       0.047533
     35 H10         -1.0750    -1.0060     3.9370 hc         1 RF4       0.047533
     36 H11         -0.0930     0.3540     4.4990 hc         1 RF4       0.047533
     37 H12         -4.5110    -0.5170     0.3240 h1         1 RF4       0.086700
     38 H13         -4.5080    -0.5180     2.0930 h1         1 RF4       0.086700
     39 H14        -10.8820    -3.3940     1.3250 ha         1 RF4       0.132000
     40 H15        -12.2760    -1.6170     1.2250 ha         1 RF4       0.115000
     41 H16        -11.4900     0.6760     1.2160 ha         1 RF4       0.110000
     42 H17         -9.0990     1.1900     1.2130 ha         1 RF4       0.122000
     43 H18         -8.6370    -4.8540     1.7400 h1         1 RF4       0.057700
     44 H19         -6.8690    -4.8070     1.7350 h1         1 RF4       0.057700
@<TRIPOS>BOND
     1     9     1 1
     2     2     1 ar
     3     2     3 ar
     4     1     6 ar
     5     3     4 ar
     6     4     5 ar
     7     6     5 ar
     8     6     7 1
     9     5    10 1
    10     7     8 1
    11     8    11 1
    12    11    12 1
    13    22    14 1
    14    22    23 1
    15    24    23 1
    16    14    15 1
    17    14    13 1
    18    18    15 ar
    19    18    19 ar
    20    23    25 1
    21    12    13 1
    22    15    16 ar
    23    13    17 2
    24    19    20 ar
    25    16    17 1
    26    16    21 ar
    27    20    21 ar
    28     2    26 1
    29     3    27 1
    30     4    28 1
    31     8    29 1
    32     8    30 1
    33     9    31 1
    34     9    32 1
    35     9    33 1
    36    10    34 1
    37    10    35 1
    38    10    36 1
    39    11    37 1
    40    11    38 1
    41    18    39 1
    42    19    40 1
    43    20    41 1
    44    21    42 1
    45    22    43 1
    46    22    44 1
@<TRIPOS>SUBSTRUCTURE
     1 RF4         1 TEMP              0 ****  ****    0 ROOT
