@<TRIPOS>MOLECULE
RF7
   32    32     1     0     0
SMALL
bcc


@<TRIPOS>ATOM
      1 O6           0.0000     0.0000     0.0000 o          1 RF7      -0.747167
      2 P4           1.6100     0.0000     0.0000 p5         1 RF7       0.424700
      3 O5           2.1460     0.0000     1.5180 o          1 RF7      -0.747167
      4 O7           2.1040    -1.2080    -0.6980 o          1 RF7      -0.747167
      5 C1           2.2170     1.4890    -0.8590 c3         1 RF7      -0.069600
      6 C2           1.8130     1.4280    -2.3330 c3         1 RF7       0.046600
      7 C3           2.6190     2.4570    -3.1270 c3         1 RF7      -0.100400
      8 C8           4.0790     2.0820    -3.0980 c          1 RF7       0.578100
      9 N9           4.9840     2.8510    -3.7360 n          1 RF7      -0.086300
     10 O10          4.5650     4.0100    -4.4310 oh         1 RF7      -0.457100
     11 C11          6.4030     2.4860    -3.7070 c3         1 RF7       0.089300
     12 O12          4.4380     1.0900    -2.5020 o          1 RF7      -0.545100
     13 C13          0.3430     1.7330    -2.4630 ca         1 RF7       0.024700
     14 C15         -0.1510     2.9510    -2.0370 ca         1 RF7      -0.069500
     15 C16         -1.5000     3.2310    -2.1570 ca         1 RF7      -0.123000
     16 C18         -2.3550     2.2930    -2.7040 ca         1 RF7      -0.153000
     17 C17         -1.8610     1.0740    -3.1300 ca         1 RF7      -0.123000
     18 C14         -0.5120     0.7960    -3.0150 ca         1 RF7      -0.069500
     19 H3           3.2970     1.5340    -0.7820 hc         1 RF7       0.008200
     20 H4           1.7860     2.3710    -0.4020 hc         1 RF7       0.008200
     21 H5           2.0120     0.4370    -2.7210 hc         1 RF7       0.065700
     22 H6           2.2720     2.4750    -4.1530 hc         1 RF7       0.008200
     23 H7           2.4890     3.4370    -2.6840 hc         1 RF7       0.008200
     24 H8           4.8410     3.9540    -5.3310 ho         1 RF7       0.368000
     25 H9           6.5440     1.5440    -4.2220 h1         1 RF7       0.001033
     26 H10          6.9840     3.2570    -4.1990 h1         1 RF7       0.001033
     27 H11          6.7300     2.3880    -2.6790 h1         1 RF7       0.001033
     28 H12          0.5180     3.6870    -1.6090 ha         1 RF7       0.102500
     29 H13         -1.8860     4.1860    -1.8220 ha         1 RF7       0.067500
     30 H14         -3.4120     2.5110    -2.7960 ha         1 RF7       0.064000
     31 H15         -2.5300     0.3390    -3.5610 ha         1 RF7       0.067500
     32 H16         -0.1250    -0.1590    -3.3500 ha         1 RF7       0.102500
@<TRIPOS>BOND
     1     1     2 1   
     2     2     3 1   
     3     2     4 1   
     4     2     5 1   
     5     5     6 1   
     6     5    19 1   
     7     5    20 1   
     8     6     7 1   
     9     6    13 1   
    10     6    21 1   
    11     7     8 1   
    12     7    22 1   
    13     7    23 1   
    14     8     9 1   
    15     8    12 2   
    16     9    10 1   
    17     9    11 1   
    18    10    24 1   
    19    11    25 1   
    20    11    26 1   
    21    11    27 1   
    22    13    14 ar  
    23    13    18 ar  
    24    14    15 ar  
    25    14    28 1   
    26    15    16 ar  
    27    15    29 1   
    28    16    17 ar  
    29    16    30 1   
    30    17    18 ar  
    31    17    31 1   
    32    18    32 1   
@<TRIPOS>SUBSTRUCTURE
     1 RF7         1 TEMP              0 ****  ****    0 ROOT
