@<TRIPOS>MOLECULE
molecule
   32    32     1     0     0
SMALL
bcc


@<TRIPOS>ATOM
      1 O6           0.0000     0.0000     0.0000 o          1 RF7      -0.914167
      2 P4           1.6100     0.0000     0.0000 p5         1 RF7       1.046700
      3 O5           2.1460     0.0000     1.5180 o          1 RF7      -0.914167
      4 O7           2.1040    -1.2080    -0.6980 o          1 RF7      -0.914167
      5 C1           2.2170     1.4890    -0.8590 c3         1 RF7      -0.242600
      6 C2           1.8130     1.4280    -2.3330 c3         1 RF7       0.012600
      7 C3           2.6190     2.4570    -3.1270 c3         1 RF7      -0.137400
      8 C8           4.0790     2.0820    -3.0980 c          1 RF7       0.668100
      9 N9           4.9840     2.8510    -3.7360 n          1 RF7      -0.401300
     10 O10          4.5650     4.0100    -4.4310 oh         1 RF7      -0.396100
     11 C11          6.4030     2.4860    -3.7070 c3         1 RF7       0.099300
     12 O12          4.4380     1.0900    -2.5020 o          1 RF7      -0.518100
     13 C13          0.3430     1.7330    -2.4630 ca         1 RF7      -0.000300
     14 C15         -0.1510     2.9510    -2.0370 ca         1 RF7      -0.089500
     15 C16         -1.5000     3.2310    -2.1570 ca         1 RF7      -0.141000
     16 C18         -2.3550     2.2930    -2.7040 ca         1 RF7      -0.161000
     17 C17         -1.8610     1.0740    -3.1300 ca         1 RF7      -0.141000
     18 C14         -0.5120     0.7960    -3.0150 ca         1 RF7      -0.089500
     19 H3           3.2970     1.5340    -0.7820 hc         1 RF7       0.031200
     20 H4           1.7860     2.3710    -0.4020 hc         1 RF7       0.031200
     21 H5           2.0120     0.4370    -2.7210 hc         1 RF7       0.090700
     22 H6           2.2720     2.4750    -4.1530 hc         1 RF7       0.040200
     23 H7           2.4890     3.4370    -2.6840 hc         1 RF7       0.040200
     24 H8           4.8410     3.9540    -5.3310 ho         1 RF7       0.373000
     25 H9           6.5440     1.5440    -4.2220 h1         1 RF7       0.035033
     26 H10          6.9840     3.2570    -4.1990 h1         1 RF7       0.035033
     27 H11          6.7300     2.3880    -2.6790 h1         1 RF7       0.035033
     28 H12          0.5180     3.6870    -1.6090 ha         1 RF7       0.127000
     29 H13         -1.8860     4.1860    -1.8220 ha         1 RF7       0.091500
     30 H14         -3.4120     2.5110    -2.7960 ha         1 RF7       0.084000
     31 H15         -2.5300     0.3390    -3.5610 ha         1 RF7       0.091500
     32 H16         -0.1250    -0.1590    -3.3500 ha         1 RF7       0.127000
@<TRIPOS>BOND
     1    11     9 1
     2    10     9 1
     3     9     8 1
     4     8    12 2
     5     8     7 1
     6     4     2 1
     7     5     2 1
     8     5     6 1
     9     7     6 1
    10     2     3 1
    11     2     1 1
    12     6    13 1
    13    14    13 ar
    14    14    15 ar
    15    13    18 ar
    16    15    16 ar
    17    18    17 ar
    18    16    17 ar
    19     5    19 1
    20     5    20 1
    21     6    21 1
    22     7    22 1
    23     7    23 1
    24    10    24 1
    25    11    25 1
    26    11    26 1
    27    11    27 1
    28    14    28 1
    29    15    29 1
    30    16    30 1
    31    17    31 1
    32    18    32 1
@<TRIPOS>SUBSTRUCTURE
     1 RF7         1 TEMP              0 ****  ****    0 ROOT
