@<TRIPOS>MOLECULE
RFM
   55    59     1     0     0
SMALL
bcc


@<TRIPOS>ATOM
      1 O01          0.0000     0.0000     0.0000 o          1 RFM      -0.611100
      2 C02          1.2130     0.0000     0.0000 c          1 RFM       0.554100
      3 N03          1.8880     0.0000     1.1670 n          1 RFM       0.041000
      4 C04          1.1930     0.1230     2.3770 ca         1 RFM      -0.091400
      5 C05         -0.1650     0.4130     2.3720 ca         1 RFM      -0.140500
      6 C06         -0.8500     0.5340     3.5650 ca         1 RFM      -0.090000
      7 C07         -0.1800     0.3670     4.7690 ca         1 RFM      -0.104400
      8 N08         -0.8740     0.4890     5.9800 ns         1 RFM      -0.033100
      9 C09         -0.2610     1.0150     7.0580 c          1 RFM       0.586700
     10 C10         -0.9530     1.0380     8.3640 ca         1 RFM      -0.163600
     11 C11         -0.3200     1.5810     9.4830 ca         1 RFM      -0.057500
     12 C12         -0.9720     1.6010    10.6990 ca         1 RFM      -0.111000
     13 C13         -2.2500     1.0820    10.8100 ca         1 RFM      -0.075000
     14 C14         -2.8830     0.5420     9.7040 ca         1 RFM      -0.111000
     15 C15         -2.2440     0.5230     8.4820 ca         1 RFM      -0.057500
     16 O16          0.8630     1.4690     6.9570 o          1 RFM      -0.640100
     17 C17          1.1780     0.0770     4.7750 ca         1 RFM      -0.090000
     18 C18          1.8610    -0.0490     3.5820 ca         1 RFM      -0.140500
     19 C19          3.3470    -0.1280     1.1700 c3         1 RFM       0.090300
     20 C20          3.9720     1.2390     1.2670 cc         1 RFM      -0.167300
     21 C21          4.3250     1.7860     2.4310 cd         1 RFM       0.034900
     22 S22          5.0160     3.3780     2.1490 ss         1 RFM      -0.248800
     23 C23          4.7790     3.2080     0.4160 cd         1 RFM       0.014900
     24 C24          4.2270     2.0220     0.1540 cc         1 RFM      -0.139000
     25 C25          1.9660    -0.0060    -1.3050 c3         1 RFM      -0.092700
     26 N26          1.0170     0.0970    -2.4170 na         1 RFM       0.482900
     27 C27          0.5590     1.2510    -3.0040 ca         1 RFM      -0.212200
     28 C28          0.7960     2.6050    -2.7880 ca         1 RFM      -0.108000
     29 C29          0.1660     3.5370    -3.5630 ca         1 RFM      -0.056000
     30 C30         -0.7100     3.1450    -4.5680 ca         1 RFM      -0.134000
     31 C31         -0.9590     1.8250    -4.8000 ca         1 RFM      -0.008000
     32 C32         -0.3260     0.8480    -4.0190 ca         1 RFM      -0.008600
     33 N33         -0.3710    -0.4980    -4.0110 nc         1 RFM      -0.125400
     34 N34          0.4030    -0.9660    -3.0960 nd         1 RFM      -0.315400
     35 H1          -0.6880     0.5430     1.4320 ha         1 RFM       0.151500
     36 H2          -1.9090     0.7600     3.5610 ha         1 RFM       0.122500
     37 H3          -1.8530     0.2880     6.0140 hn         1 RFM       0.173500
     38 H4           0.6810     1.9870     9.3970 ha         1 RFM       0.114000
     39 H5          -0.4820     2.0220    11.5690 ha         1 RFM       0.107000
     40 H6          -2.7570     1.0970    11.7670 ha         1 RFM       0.103000
     41 H7          -3.8840     0.1400     9.7970 ha         1 RFM       0.107000
     42 H8          -2.7400     0.0990     7.6170 ha         1 RFM       0.114000
     43 H9           1.7000    -0.0550     5.7150 ha         1 RFM       0.122500
     44 H10          2.9200    -0.2750     3.5860 ha         1 RFM       0.151500
     45 H11          3.6550    -0.7270     2.0180 h1         1 RFM       0.040700
     46 H12          3.6690    -0.6080     0.2530 h1         1 RFM       0.040700
     47 H13          4.2050     1.3200     3.4020 h4         1 RFM       0.162000
     48 H14          5.0460     3.9500    -0.3270 h4         1 RFM       0.150000
     49 H15          3.9900     1.6990    -0.8530 ha         1 RFM       0.121000
     50 H16          2.6470     0.8370    -1.3330 h1         1 RFM       0.059700
     51 H17          2.5280    -0.9270    -1.3940 h1         1 RFM       0.059700
     52 H18          1.4770     2.9200    -2.0060 ha         1 RFM       0.104000
     53 H19          0.3520     4.5910    -3.3940 ha         1 RFM       0.104000
     54 H20         -1.2010     3.8970    -5.1740 ha         1 RFM       0.108000
     55 H21         -1.6440     1.5310    -5.5870 ha         1 RFM       0.112000
@<TRIPOS>BOND
     1     1     2 2   
     2     2     3 1   
     3     2    25 1   
     4     3     4 1   
     5     3    19 1   
     6     4     5 ar  
     7     4    18 ar  
     8     5     6 ar  
     9     5    35 1   
    10     6     7 ar  
    11     6    36 1   
    12     7     8 1   
    13     7    17 ar  
    14     8     9 1   
    15     8    37 1   
    16     9    10 1   
    17     9    16 2   
    18    10    11 ar  
    19    10    15 ar  
    20    11    12 ar  
    21    11    38 1   
    22    12    13 ar  
    23    12    39 1   
    24    13    14 ar  
    25    13    40 1   
    26    14    15 ar  
    27    14    41 1   
    28    15    42 1   
    29    17    18 ar  
    30    17    43 1   
    31    18    44 1   
    32    19    20 1   
    33    19    45 1   
    34    19    46 1   
    35    20    21 2   
    36    20    24 1   
    37    21    22 1   
    38    21    47 1   
    39    22    23 1   
    40    23    24 2   
    41    23    48 1   
    42    24    49 1   
    43    25    26 1   
    44    25    50 1   
    45    25    51 1   
    46    26    27 1   
    47    26    34 1   
    48    27    28 ar  
    49    27    32 ar  
    50    28    29 ar  
    51    28    52 1   
    52    29    30 ar  
    53    29    53 1   
    54    30    31 ar  
    55    30    54 1   
    56    31    32 ar  
    57    31    55 1   
    58    32    33 1   
    59    33    34 2   
@<TRIPOS>SUBSTRUCTURE
     1 RFM         1 TEMP              0 ****  ****    0 ROOT
