@<TRIPOS>MOLECULE
RFN
   45    46     1     0     0
SMALL
bcc


@<TRIPOS>ATOM
      1 N1           0.0000     0.0000     0.0000 n          1 RFN       0.133000
      2 C4           1.9410     1.0940     4.5620 ca         1 RFN      -0.083500
      3 C5           2.0530     0.0010     3.7030 ca         1 RFN      -0.063800
      4 C6           2.8350    -1.0930     4.0740 ca         1 RFN      -0.083500
      5 C7           1.3410     0.0000     2.4030 cc         1 RFN       0.059800
      6 C8          -0.0710     0.0070     2.3570 cc         1 RFN      -0.196000
      7 C10          1.3460     0.0000     0.0000 c          1 RFN       0.589700
      8 C13         -0.9700    -1.4420    -1.7200 c3         1 RFN      -0.008400
      9 C15         -2.1320    -2.8660    -3.3840 c          1 RFN       0.585100
     10 C17         -3.1560    -0.7180    -2.6880 c3         1 RFN       0.036900
     11 C1           3.4940    -1.0860     5.2860 ca         1 RFN      -0.101500
     12 C2           3.3800     0.0010     6.1340 ca         1 RFN      -0.095000
     13 C3           2.6090     1.0910     5.7690 ca         1 RFN      -0.101500
     14 C9          -0.7020     0.0050     1.1630 cd         1 RFN      -0.135400
     15 C11          2.0510     0.0000     1.2120 cd         1 RFN      -0.233200
     16 O1           1.9550    -0.0000    -1.0590 o          1 RFN      -0.720500
     17 C12         -0.7200     0.0010    -1.2750 c3         1 RFN      -0.058000
     18 C14         -1.8420    -1.4450    -2.9770 c3         1 RFN      -0.115200
     19 S1          -0.9670    -0.5980    -4.3220 s6         1 RFN       0.803000
     20 C16          0.5880    -1.5290    -4.4020 c3         1 RFN       0.016700
     21 O2          -1.6830    -0.8070    -5.5310 o          1 RFN      -0.586800
     22 O3          -0.6770     0.7310    -3.9070 o          1 RFN      -0.586800
     23 O4          -1.9290    -3.7730    -2.6060 o          1 RFN      -0.611100
     24 N2          -2.6190    -3.1290    -4.6130 ns         1 RFN      -0.080400
     25 O5          -2.8920    -4.4640    -4.9960 oh         1 RFN      -0.439100
     26 H4           1.3360     1.9470     4.2780 ha         1 RFN       0.109000
     27 H6           2.9260    -1.9450     3.4110 ha         1 RFN       0.109000
     28 H8          -0.6450     0.0110     3.2760 ha         1 RFN       0.127000
     29 H13         -1.4760    -1.9810    -0.9280 hc         1 RFN       0.047200
     30 H13A        -0.0240    -1.9230    -1.9360 hc         1 RFN       0.047200
     31 H17         -3.5150    -0.9970    -1.7040 hc         1 RFN       0.020700
     32 H17A        -3.8930    -0.9930    -3.4320 hc         1 RFN       0.020700
     33 H17B        -2.9920     0.3530    -2.7210 hc         1 RFN       0.020700
     34 H1           4.1010    -1.9350     5.5760 ha         1 RFN       0.104000
     35 H2           3.9010     0.0020     7.0830 ha         1 RFN       0.103000
     36 H3           2.5230     1.9400     6.4370 ha         1 RFN       0.104000
     37 H9          -1.7850     0.0080     1.1320 h4         1 RFN       0.126000
     38 H11          3.1340     0.0000     1.2180 ha         1 RFN       0.142000
     39 H12         -1.6670     0.5120    -1.1550 h1         1 RFN       0.077700
     40 H12A        -0.1260     0.5110    -2.0240 h1         1 RFN       0.077700
     41 H16          1.1100    -1.4420    -3.4570 h1         1 RFN       0.076033
     42 H16A         1.2080    -1.1290    -5.1950 h1         1 RFN       0.076033
     43 H16B         0.3740    -2.5720    -4.6020 h1         1 RFN       0.076033
     44 HN2         -2.8370    -2.3770    -5.2370 hn         1 RFN       0.215500
     45 HO5         -3.5050    -4.4670    -5.7130 ho         1 RFN       0.398000
@<TRIPOS>BOND
     1     1     7 1   
     2     1    14 1   
     3     1    17 1   
     4     2     3 ar  
     5     2    13 ar  
     6     2    26 1   
     7     3     4 ar  
     8     3     5 1   
     9     4    11 ar  
    10     4    27 1   
    11     5     6 1   
    12     5    15 2   
    13     6    14 2   
    14     6    28 1   
    15     7    15 1   
    16     7    16 2   
    17     8    17 1   
    18     8    18 1   
    19     8    29 1   
    20     8    30 1   
    21     9    18 1   
    22     9    23 2   
    23     9    24 1   
    24    10    18 1   
    25    10    31 1   
    26    10    32 1   
    27    10    33 1   
    28    11    12 ar  
    29    11    34 1   
    30    12    13 ar  
    31    12    35 1   
    32    13    36 1   
    33    14    37 1   
    34    15    38 1   
    35    17    39 1   
    36    17    40 1   
    37    18    19 1   
    38    19    20 1   
    39    19    21 2   
    40    19    22 2   
    41    20    41 1   
    42    20    42 1   
    43    20    43 1   
    44    24    25 1   
    45    24    44 1   
    46    25    45 1   
@<TRIPOS>SUBSTRUCTURE
     1 RFN         1 TEMP              0 ****  ****    0 ROOT
