@<TRIPOS>MOLECULE
molecule
   45    46     1     0     0
SMALL
bcc


@<TRIPOS>ATOM
      1 N1           0.0000     0.0000     0.0000 n          1 RFN      -0.313000
      2 C4           1.9410     1.0940     4.5620 ca         1 RFN      -0.108500
      3 C5           2.0530     0.0010     3.7030 ca         1 RFN      -0.068800
      4 C6           2.8350    -1.0930     4.0740 ca         1 RFN      -0.108500
      5 C7           1.3410     0.0000     2.4030 cc         1 RFN       0.056800
      6 C8          -0.0710     0.0070     2.3570 cc         1 RFN      -0.230000
      7 C10          1.3460     0.0000     0.0000 c          1 RFN       0.686700
      8 C13         -0.9700    -1.4420    -1.7200 c3         1 RFN      -0.071400
      9 C15         -2.1320    -2.8660    -3.3840 c          1 RFN       0.676100
     10 C17         -3.1560    -0.7180    -2.6880 c3         1 RFN      -0.068100
     11 C1           3.4940    -1.0860     5.2860 ca         1 RFN      -0.129000
     12 C2           3.3800     0.0010     6.1340 ca         1 RFN      -0.121000
     13 C3           2.6090     1.0910     5.7690 ca         1 RFN      -0.129000
     14 C9          -0.7020     0.0050     1.1630 cd         1 RFN       0.003600
     15 C11          2.0510     0.0000     1.2120 cd         1 RFN      -0.252200
     16 O1           1.9550    -0.0000    -1.0590 o          1 RFN      -0.669500
     17 C12         -0.7200     0.0010    -1.2750 c3         1 RFN       0.057000
     18 C14         -1.8420    -1.4450    -2.9770 c3         1 RFN      -0.246200
     19 S1          -0.9670    -0.5980    -4.3220 s6         1 RFN       1.104000
     20 C16          0.5880    -1.5290    -4.4020 c3         1 RFN      -0.215300
     21 O2          -1.6830    -0.8070    -5.5310 o          1 RFN      -0.617300
     22 O3          -0.6770     0.7310    -3.9070 o          1 RFN      -0.617300
     23 O4          -1.9290    -3.7730    -2.6060 o          1 RFN      -0.553100
     24 N2          -2.6190    -3.1290    -4.6130 ns         1 RFN      -0.477400
     25 O5          -2.8920    -4.4640    -4.9960 oh         1 RFN      -0.359100
     26 H4           1.3360     1.9470     4.2780 ha         1 RFN       0.137000
     27 H6           2.9260    -1.9450     3.4110 ha         1 RFN       0.137000
     28 H8          -0.6450     0.0110     3.2760 ha         1 RFN       0.153000
     29 H13         -1.4760    -1.9810    -0.9280 hc         1 RFN       0.080700
     30 H13A        -0.0240    -1.9230    -1.9360 hc         1 RFN       0.080700
     31 H17         -3.5150    -0.9970    -1.7040 hc         1 RFN       0.058700
     32 H17A        -3.8930    -0.9930    -3.4320 hc         1 RFN       0.058700
     33 H17B        -2.9920     0.3530    -2.7210 hc         1 RFN       0.058700
     34 H1           4.1010    -1.9350     5.5760 ha         1 RFN       0.132500
     35 H2           3.9010     0.0020     7.0830 ha         1 RFN       0.131000
     36 H3           2.5230     1.9400     6.4370 ha         1 RFN       0.132500
     37 H9          -1.7850     0.0080     1.1320 h4         1 RFN       0.153000
     38 H11          3.1340     0.0000     1.2180 ha         1 RFN       0.171000
     39 H12         -1.6670     0.5120    -1.1550 h1         1 RFN       0.091200
     40 H12A        -0.1260     0.5110    -2.0240 h1         1 RFN       0.091200
     41 H16          1.1100    -1.4420    -3.4570 h1         1 RFN       0.112700
     42 H16A         1.2080    -1.1290    -5.1950 h1         1 RFN       0.112700
     43 H16B         0.3740    -2.5720    -4.6020 h1         1 RFN       0.112700
     44 HN2         -2.8370    -2.3770    -5.2370 hn         1 RFN       0.356500
     45 HO5         -3.5050    -4.4670    -5.7130 ho         1 RFN       0.405000
@<TRIPOS>BOND
     1     7     1 1
     2    14     1 1
     3     1    17 1
     4    13     2 ar
     5     2     3 ar
     6     2    26 1
     7     3     4 ar
     8     3     5 1
     9    11     4 ar
    10     4    27 1
    11     5    15 2
    12     5     6 1
    13     6    14 2
    14     6    28 1
    15    15     7 1
    16     7    16 2
    17     8    18 1
    18     8    17 1
    19     8    29 1
    20     8    30 1
    21    18     9 1
    22    23     9 2
    23     9    24 1
    24    18    10 1
    25    10    31 1
    26    10    32 1
    27    10    33 1
    28    12    11 ar
    29    11    34 1
    30    13    12 ar
    31    12    35 1
    32    13    36 1
    33    14    37 1
    34    15    38 1
    35    17    39 1
    36    17    40 1
    37    19    18 1
    38    21    19 2
    39    20    19 1
    40    19    22 2
    41    20    41 1
    42    20    42 1
    43    20    43 1
    44    24    25 1
    45    24    44 1
    46    25    45 1
@<TRIPOS>SUBSTRUCTURE
     1 RFN         1 TEMP              0 ****  ****    0 ROOT
