@<TRIPOS>MOLECULE
RFW
   34    33     1     0     0
SMALL
bcc


@<TRIPOS>ATOM
      1 P           0.0000    0.0000    0.0000 p5        1 RFW      0.732900
      2 C1          8.4880   -2.5810    0.7870 c         1 RFW      0.669900
      3 O1          9.1590   -3.1830   -0.0160 o         1 RFW     -0.538100
      4 C2          7.0230   -2.9000    0.9370 c3        1 RFW     -0.176500
      5 N2          6.6580   -3.9680    0.0030 ny        1 RFW      0.087200
      6 C3          6.1950   -1.6500    0.6300 c3        1 RFW      0.178100
      7 O3          6.4560   -1.2220   -0.7080 oh        1 RFW     -0.577800
      8 C4          4.7080   -1.9740    0.7820 c3        1 RFW      0.164100
      9 O4          4.3780   -3.0930   -0.0440 oh        1 RFW     -0.600800
     10 C5          3.8770   -0.7620    0.3550 c3        1 RFW      0.135100
     11 O5          4.2060    0.3560    1.1810 oh        1 RFW     -0.611800
     12 C6          2.3880   -1.0860    0.5070 c3        1 RFW      0.271400
     13 O6          1.6110    0.0000    0.0000 os        1 RFW     -0.477200
     14 C7          6.8430   -5.2570    0.3490 c         1 RFW      0.175100
     15 O7          7.3090   -5.5330    1.4340 o         1 RFW     -0.603100
     16 C8          6.4670   -6.3560   -0.6120 c3        1 RFW     -0.011100
     17 O1P        -0.5220    0.0000    1.4770 o         1 RFW     -0.624167
     18 O2P        -0.5220    1.2800   -0.7380 o         1 RFW     -0.624167
     19 O3P        -0.5230   -1.2790   -0.7390 o         1 RFW     -0.624167
     20 H1          8.9430   -1.8200    1.4100 h4        1 RFW     -0.012800
     21 H2          6.8250   -3.2240    1.9510 hx        1 RFW      0.112700
     22 HN2         5.6840   -3.8570   -0.2000 hn        1 RFW      0.276300
     23 H3          6.4650   -0.8600    1.3200 h1        1 RFW      0.050700
     24 HO3         6.9560   -0.4220   -0.6900 ho        1 RFW      0.407000
     25 H4          4.4940   -2.2130    1.8160 h1        1 RFW      0.030700
     26 HO4         3.6420   -3.5520    0.3270 ho        1 RFW      0.441000
     27 H5          4.0910   -0.5230   -0.6800 h1        1 RFW      0.028700
     28 HO5         4.1090    1.1520    0.6850 ho        1 RFW      0.417000
     29 H6          2.1560   -1.2380    1.5540 h1        1 RFW     -0.019300
     30 H6A         2.1560   -1.9860   -0.0490 h1        1 RFW     -0.019300
     31 H8          6.2850   -5.9320   -1.5920 hc        1 RFW      0.021700
     32 H8A         7.2760   -7.0740   -0.6740 hc        1 RFW      0.021700
     33 H8B         5.5700   -6.8520   -0.2610 hc        1 RFW      0.021700
     34 H22         7.1810   -3.8120   -0.8360 hn        1 RFW      0.276300
@<TRIPOS>BOND
     1    1   13 1   
     2    1   17 1   
     3    1   18 1   
     4    1   19 1   
     5    2    3 2   
     6    2    4 1   
     7    2   20 1   
     8    4    5 1   
     9    4    6 1   
    10    4   21 1   
    11    5   14 1   
    12    5   22 1   
    13    5   34 1   
    14    6    7 1   
    15    6    8 1   
    16    6   23 1   
    17    7   24 1   
    18    8    9 1   
    19    8   10 1   
    20    8   25 1   
    21    9   26 1   
    22   10   11 1   
    23   10   12 1   
    24   10   27 1   
    25   11   28 1   
    26   12   13 1   
    27   12   29 1   
    28   12   30 1   
    29   14   15 2   
    30   14   16 1   
    31   16   31 1   
    32   16   32 1   
    33   16   33 1   
@<TRIPOS>SUBSTRUCTURE
     1 RFW         1 TEMP              0 ****  ****    0 ROOT
