@<TRIPOS>MOLECULE
molecule
   33    32     1     0     0
SMALL
bcc


@<TRIPOS>ATOM
      1 P            0.0000     0.0000     0.0000 p5         1 RFW       1.172900
      2 C1           8.4880    -2.5810     0.7870 c          1 RFW       0.557900
      3 O1           9.1590    -3.1830    -0.0160 o          1 RFW      -0.525100
      4 C2           7.0230    -2.9000     0.9370 c3         1 RFW      -0.012300
      5 N2           6.6580    -3.9680     0.0030 ns         1 RFW      -0.530900
      6 C3           6.1950    -1.6500     0.6300 c3         1 RFW       0.140100
      7 O3           6.4560    -1.2220    -0.7080 oh         1 RFW      -0.590800
      8 C4           4.7080    -1.9740     0.7820 c3         1 RFW       0.149100
      9 O4           4.3780    -3.0930    -0.0440 oh         1 RFW      -0.606800
     10 C5           3.8770    -0.7620     0.3550 c3         1 RFW       0.109100
     11 O5           4.2060     0.3560     1.1810 oh         1 RFW      -0.636800
     12 C6           2.3880    -1.0860     0.5070 c3         1 RFW       0.203400
     13 O6           1.6110     0.0000     0.0000 os         1 RFW      -0.575200
     14 C7           6.8430    -5.2570     0.3490 c          1 RFW       0.663100
     15 O7           7.3090    -5.5330     1.4340 o          1 RFW      -0.655100
     16 C8           6.4670    -6.3560    -0.6120 c3         1 RFW      -0.164100
     17 O1P         -0.5220     0.0000     1.4770 o          1 RFW      -0.906833
     18 O2P         -0.5220     1.2800    -0.7380 o          1 RFW      -0.906833
     19 O3P         -0.5230    -1.2790    -0.7390 o          1 RFW      -0.906833
     20 H1           8.9450    -1.8270     1.4170 h4         1 RFW      -0.019800
     21 H2           6.8250    -3.2240     1.9510 h1         1 RFW       0.098700
     22 HN2          6.3300    -3.7390    -0.9150 hn         1 RFW       0.352500
     23 H3           6.4650    -0.8600     1.3200 h1         1 RFW       0.057700
     24 HO3          6.9320    -0.4080    -0.6900 ho         1 RFW       0.394000
     25 H4           4.4940    -2.2130     1.8160 h1         1 RFW       0.046700
     26 HO4          3.7250    -3.6200     0.3870 ho         1 RFW       0.414000
     27 H5           4.0910    -0.5230    -0.6800 h1         1 RFW       0.055700
     28 HO5          4.1120     1.1520     0.6840 ho         1 RFW       0.417000
     29 H6           2.1560    -1.2380     1.5540 h1         1 RFW       0.020200
     30 H6A          2.1560    -1.9860    -0.0490 h1         1 RFW       0.020200
     31 H8           6.7110    -6.0510    -1.6230 hc         1 RFW       0.055367
     32 H8A          7.0160    -7.2560    -0.3640 hc         1 RFW       0.055367
     33 H8B          5.4040    -6.5510    -0.5400 hc         1 RFW       0.055367
@<TRIPOS>BOND
     1     1    13 1
     2     1    17 1
     3     1    18 1
     4     1    19 1
     5     2     3 2
     6     2     4 1
     7     4     5 1
     8     4     6 1
     9     5    14 1
    10     6     7 1
    11     6     8 1
    12     8     9 1
    13     8    10 1
    14    10    11 1
    15    10    12 1
    16    12    13 1
    17    14    15 2
    18    14    16 1
    19     2    20 1
    20     4    21 1
    21     5    22 1
    22     6    23 1
    23     7    24 1
    24     8    25 1
    25     9    26 1
    26    10    27 1
    27    11    28 1
    28    12    29 1
    29    12    30 1
    30    16    31 1
    31    16    32 1
    32    16    33 1
@<TRIPOS>SUBSTRUCTURE
     1 RFW         1 TEMP              0 ****  ****    0 ROOT
