@<TRIPOS>MOLECULE
molecule
   40    41     1     0     0
SMALL
bcc


@<TRIPOS>ATOM
      1 F14          0.0000     0.0000     0.0000 f          1 RFX      -0.225300
      2 C12          1.3990     0.0000     0.0000 c3         1 RFX       0.677200
      3 F15          1.8650     0.0000     1.3190 f          1 RFX      -0.225300
      4 F13          1.8650    -1.1420    -0.6600 f          1 RFX      -0.225300
      5 C9           1.9010     1.2320    -0.7100 ca         1 RFX      -0.224300
      6 C10          2.1310     2.3940     0.0030 ca         1 RFX      -0.042000
      7 C11          2.5910     3.5230    -0.6450 ca         1 RFX      -0.202000
      8 C6           2.8230     3.4910    -2.0130 ca         1 RFX       0.174100
      9 C7           2.5910     2.3230    -2.7260 ca         1 RFX      -0.202000
     10 C8           2.1360     1.1950    -2.0720 ca         1 RFX      -0.042000
     11 O5           3.2760     4.6010    -2.6540 os         1 RFX      -0.314900
     12 C3           3.4350     5.7830    -1.8670 c3         1 RFX       0.185400
     13 C2           2.1690     6.6360    -1.9640 c3         1 RFX      -0.101400
     14 C1           0.9970     5.8830    -1.3300 c3         1 RFX       0.148800
     15 N4          -0.2190     6.7020    -1.4230 n7         1 RFX      -0.817200
     16 C22         -1.3670     6.0100    -0.8220 c3         1 RFX       0.147100
     17 C16          4.6120     6.5720    -2.3800 ca         1 RFX      -0.096300
     18 C21          4.8290     6.6860    -3.7410 ca         1 RFX      -0.107000
     19 C20          5.9080     7.4090    -4.2110 ca         1 RFX      -0.129000
     20 C19          6.7710     8.0200    -3.3210 ca         1 RFX      -0.120000
     21 C18          6.5550     7.9070    -1.9600 ca         1 RFX      -0.129000
     22 C17          5.4720     7.1870    -1.4900 ca         1 RFX      -0.107000
     23 H10          1.9510     2.4180     1.0710 ha         1 RFX       0.148500
     24 H11          2.7710     4.4330    -0.0860 ha         1 RFX       0.151000
     25 H7           2.7730     2.2950    -3.7940 ha         1 RFX       0.151000
     26 H8           1.9550     0.2830    -2.6280 ha         1 RFX       0.148500
     27 H3           3.6080     5.5090    -0.8330 h1         1 RFX       0.057700
     28 H2           2.3220     7.5720    -1.4410 hc         1 RFX       0.066700
     29 H2A          1.9470     6.8360    -3.0060 hc         1 RFX       0.066700
     30 H1           0.8430     4.9470    -1.8530 h1         1 RFX       0.036200
     31 H1A          1.2180     5.6830    -0.2880 h1         1 RFX       0.036200
     32 H22         -1.1630     5.8130     0.2230 h1         1 RFX       0.032033
     33 H22A        -2.2490     6.6330    -0.9080 h1         1 RFX       0.032033
     34 H21          4.1520     6.2070    -4.4380 ha         1 RFX       0.136000
     35 H20          6.0770     7.4970    -5.2770 ha         1 RFX       0.132500
     36 H19          7.6190     8.5850    -3.6900 ha         1 RFX       0.131000
     37 H18          7.2300     8.3880    -1.2630 ha         1 RFX       0.132500
     38 H17          5.3030     7.0990    -0.4230 ha         1 RFX       0.136000
     39 H171        -0.0710     7.5730    -0.9540 hn         1 RFX       0.349800
     40 H181        -1.5350     5.0730    -1.3400 h1         1 RFX       0.032033
@<TRIPOS>BOND
     1     1     2 1
     2     2     3 1
     3     2     5 1
     4     4     2 1
     5     5     6 ar
     6     6     7 ar
     7     6    23 1
     8     7    24 1
     9     8     7 ar
    10     8    11 1
    11     9     8 ar
    12     9    25 1
    13    10     5 ar
    14    10     9 ar
    15    10    26 1
    16    11    12 1
    17    12    17 1
    18    12    13 1
    19    12    27 1
    20    13    28 1
    21    13    29 1
    22    14    13 1
    23    14    15 1
    24    14    30 1
    25    14    31 1
    26    15    16 1
    27    16    32 1
    28    16    33 1
    29    17    22 ar
    30    18    17 ar
    31    18    19 ar
    32    18    34 1
    33    19    20 ar
    34    19    35 1
    35    20    21 ar
    36    20    36 1
    37    21    37 1
    38    22    21 ar
    39    22    38 1
    40    15    39 1
    41    16    40 1
@<TRIPOS>SUBSTRUCTURE
     1 RFX         1 TEMP              0 ****  ****    0 ROOT
