@<TRIPOS>MOLECULE
RFX
   40    41     1     0     0
SMALL
bcc


@<TRIPOS>ATOM
      1 F14          0.0000     0.0000     0.0000 f          1 RFX      -0.209967
      2 C12          1.3990     0.0000     0.0000 c3         1 RFX       0.645200
      3 F15          1.8650     0.0000     1.3190 f          1 RFX      -0.209967
      4 F13          1.8650    -1.1420    -0.6600 f          1 RFX      -0.209967
      5 C9           1.9010     1.2320    -0.7100 ca         1 RFX      -0.260300
      6 C10          2.1310     2.3940     0.0030 ca         1 RFX       0.004000
      7 C11          2.5910     3.5230    -0.6450 ca         1 RFX      -0.195500
      8 C6           2.8230     3.4910    -2.0130 ca         1 RFX       0.191100
      9 C7           2.5910     2.3230    -2.7260 ca         1 RFX      -0.195500
     10 C8           2.1360     1.1950    -2.0720 ca         1 RFX       0.004000
     11 O5           3.2760     4.6010    -2.6540 os         1 RFX      -0.289900
     12 C3           3.4350     5.7830    -1.8670 c3         1 RFX       0.219400
     13 C2           2.1690     6.6360    -1.9640 c3         1 RFX      -0.054400
     14 C1           0.9970     5.8830    -1.3300 c3         1 RFX       0.120800
     15 N4          -0.2190     6.7020    -1.4230 n7         1 RFX      -0.581200
     16 C22         -1.3670     6.0100    -0.8220 c3         1 RFX       0.178100
     17 C16          4.6120     6.5720    -2.3800 ca         1 RFX      -0.112300
     18 C21          4.8290     6.6860    -3.7410 ca         1 RFX      -0.080500
     19 C20          5.9080     7.4090    -4.2110 ca         1 RFX      -0.101000
     20 C19          6.7710     8.0200    -3.3210 ca         1 RFX      -0.093000
     21 C18          6.5550     7.9070    -1.9600 ca         1 RFX      -0.101000
     22 C17          5.4720     7.1870    -1.4900 ca         1 RFX      -0.080500
     23 H10          1.9510     2.4180     1.0710 ha         1 RFX       0.116500
     24 H11          2.7710     4.4330    -0.0860 ha         1 RFX       0.132000
     25 H7           2.7730     2.2950    -3.7940 ha         1 RFX       0.132000
     26 H8           1.9550     0.2830    -2.6280 ha         1 RFX       0.116500
     27 H3           3.6080     5.5090    -0.8330 h1         1 RFX       0.032700
     28 H2           2.3220     7.5720    -1.4410 hc         1 RFX       0.036200
     29 H2A          1.9470     6.8360    -3.0060 hc         1 RFX       0.036200
     30 H1           0.8430     4.9470    -1.8530 h1         1 RFX       0.015700
     31 H1A          1.2180     5.6830    -0.2880 h1         1 RFX       0.015700
     32 H22         -1.1630     5.8130     0.2230 h1         1 RFX      -0.000633
     33 H22A        -2.2490     6.6330    -0.9080 h1         1 RFX      -0.000633
     34 H21          4.1520     6.2070    -4.4380 ha         1 RFX       0.109500
     35 H20          6.0770     7.4970    -5.2770 ha         1 RFX       0.104500
     36 H19          7.6190     8.5850    -3.6900 ha         1 RFX       0.103000
     37 H18          7.2300     8.3880    -1.2630 ha         1 RFX       0.104500
     38 H17          5.3030     7.0990    -0.4230 ha         1 RFX       0.109500
     39 H171        -0.0710     7.5730    -0.9540 hn         1 RFX       0.248800
     40 H181        -1.5350     5.0730    -1.3400 h1         1 RFX      -0.000633
@<TRIPOS>BOND
     1     1     2 1   
     2     2     3 1   
     3     2     4 1   
     4     2     5 1   
     5     5     6 ar  
     6     5    10 ar  
     7     6     7 ar  
     8     6    23 1   
     9     7     8 ar  
    10     7    24 1   
    11     8     9 ar  
    12     8    11 1   
    13     9    10 ar  
    14     9    25 1   
    15    10    26 1   
    16    11    12 1   
    17    12    13 1   
    18    12    17 1   
    19    12    27 1   
    20    13    14 1   
    21    13    28 1   
    22    13    29 1   
    23    14    15 1   
    24    14    30 1   
    25    14    31 1   
    26    15    16 1   
    27    15    39 1   
    28    16    32 1   
    29    16    33 1   
    30    16    40 1   
    31    17    18 ar  
    32    17    22 ar  
    33    18    19 ar  
    34    18    34 1   
    35    19    20 ar  
    36    19    35 1   
    37    20    21 ar  
    38    20    36 1   
    39    21    22 ar  
    40    21    37 1   
    41    22    38 1   
@<TRIPOS>SUBSTRUCTURE
     1 RFX         1 TEMP              0 ****  ****    0 ROOT
