@<TRIPOS>MOLECULE
RFZ
   32    34     1     0     0
SMALL
bcc


@<TRIPOS>ATOM
      1 C6         -0.0790    0.0920   -0.3160 ca        1 RFZ     -0.067200
      2 C5          1.2050   -0.4180   -0.1090 ca        1 RFZ     -0.126000
      3 C4          1.6310   -0.5690    1.2080 ca        1 RFZ      0.033400
      4 CL2         3.1890   -1.1870    1.4790 cl        1 RFZ     -0.068400
      5 C3          0.7990   -0.2210    2.2980 ca        1 RFZ     -0.002600
      6 CL1         1.3550   -0.4210    3.8920 cl        1 RFZ     -0.070400
      7 C2         -0.4830    0.2890    2.1070 ca        1 RFZ     -0.056000
      8 C7         -0.9420    0.4540    0.7960 ca        1 RFZ      0.074400
      9 N2         -2.1700    0.9400    0.2960 nc        1 RFZ     -0.557100
     10 C1         -2.0620    0.8780   -1.0380 cd        1 RFZ      0.444700
     11 N1         -0.8210    0.3620   -1.4760 na        1 RFZ     -0.203300
     12 C1'        -0.3310    0.2330   -2.8280 c3        1 RFZ      0.259800
     13 O4'        -1.3080    0.7020   -3.7640 os        1 RFZ     -0.416600
     14 C4'        -1.8870   -0.3850   -4.5060 c3        1 RFZ      0.055100
     15 C5'        -3.3110   -0.6300   -4.0090 c3        1 RFZ      0.114400
     16 O5'        -4.1430    0.4770   -4.2760 oh        1 RFZ     -0.586800
     17 C3'        -0.9830   -1.6160   -4.3350 c3        1 RFZ      0.092100
     18 O3'        -0.3080   -1.9590   -5.5230 oh        1 RFZ     -0.582800
     19 C2'         0.0180   -1.2400   -3.2200 c3        1 RFZ      0.067100
     20 O2'         1.3450   -1.2060   -3.7060 oh        1 RFZ     -0.593800
     21 H5          1.8520   -0.6870   -0.9580 ha        1 RFZ      0.163000
     22 H2         -1.1240    0.5580    2.9600 ha        1 RFZ      0.169000
     23 H1         -2.8300    1.1880   -1.7590 h5        1 RFZ      0.076800
     24 H1'         0.5700    0.9060   -2.9610 h2        1 RFZ      0.115700
     25 H4'        -1.9070   -0.0260   -5.5720 h1        1 RFZ      0.103700
     26 H5'        -3.3030   -0.8510   -2.9070 h1        1 RFZ      0.059200
     27 H5'A       -3.7750   -1.4850   -4.5690 h1        1 RFZ      0.059200
     28 HO5'       -3.7070    1.2600   -3.9130 ho        1 RFZ      0.409000
     29 H3'        -1.5750   -2.5340   -4.0700 h1        1 RFZ      0.103700
     30 HO3'        0.2120   -1.1900   -5.8000 ho        1 RFZ      0.419000
     31 H2'        -0.0530   -1.9470   -2.3520 h1        1 RFZ      0.080700
     32 HO2'        1.5340   -2.0840   -4.0660 ho        1 RFZ      0.429000
@<TRIPOS>BOND
     1    1    2 ar  
     2    1    8 ar  
     3    1   11 1   
     4    2    3 ar  
     5    2   21 1   
     6    3    4 1   
     7    3    5 ar  
     8    5    6 1   
     9    5    7 ar  
    10    7    8 ar  
    11    7   22 1   
    12    8    9 1   
    13    9   10 2   
    14   10   11 1   
    15   10   23 1   
    16   11   12 1   
    17   12   13 1   
    18   12   19 1   
    19   12   24 1   
    20   13   14 1   
    21   14   15 1   
    22   14   17 1   
    23   14   25 1   
    24   15   16 1   
    25   15   26 1   
    26   15   27 1   
    27   16   28 1   
    28   17   18 1   
    29   17   19 1   
    30   17   29 1   
    31   18   30 1   
    32   19   20 1   
    33   19   31 1   
    34   20   32 1   
@<TRIPOS>SUBSTRUCTURE
     1 RFZ         1 TEMP              0 ****  ****    0 ROOT
