@<TRIPOS>MOLECULE
molecule
   32    34     1     0     0
SMALL
bcc


@<TRIPOS>ATOM
      1 C6           0.0000     0.0000     0.0000 ca         1 RFZ      -0.083200
      2 C5           1.3880     0.0000     0.0000 ca         1 RFZ      -0.110000
      3 C4           2.0750     0.0000     1.1970 ca         1 RFZ       0.038400
      4 Cl2          3.8100     0.0000     1.1950 cl         1 RFZ      -0.083400
      5 C3           1.3850    -0.0020     2.4030 ca         1 RFZ       0.014400
      6 Cl1          2.2660    -0.0030     3.8990 cl         1 RFZ      -0.086400
      7 C2           0.0080    -0.0010     2.4210 ca         1 RFZ      -0.059000
      8 C7          -0.7010    -0.0010     1.2170 ca         1 RFZ       0.101400
      9 N2          -2.0240    -0.0010     0.9120 nc         1 RFZ      -0.603100
     10 C1          -2.1750    -0.0000    -0.3810 cd         1 RFZ       0.455700
     11 N1          -0.9600    -0.0040    -0.9930 na         1 RFZ      -0.159300
     12 C1'         -0.7150    -0.0050    -2.4370 c3         1 RFZ       0.253800
     13 O4'         -1.8660     0.5080    -3.1420 os         1 RFZ      -0.394600
     14 C4'         -1.7350     0.0160    -4.4940 c3         1 RFZ       0.128100
     15 C5'         -3.0900     0.0390    -5.2030 c3         1 RFZ       0.147400
     16 O5'         -3.5150     1.3920    -5.3750 oh         1 RFZ      -0.593800
     17 C3'         -1.2340    -1.4380    -4.3390 c3         1 RFZ       0.087100
     18 O3'         -0.2940    -1.7550    -5.3670 oh         1 RFZ      -0.570800
     19 C2'         -0.5440    -1.4510    -2.9540 c3         1 RFZ       0.088100
     20 O2'          0.8400    -1.7790    -3.0870 oh         1 RFZ      -0.571800
     21 H5           1.9300    -0.0840    -0.9340 ha         1 RFZ       0.157000
     22 H2          -0.5230    -0.0030     3.3650 ha         1 RFZ       0.163000
     23 H1          -3.1290     0.0020    -0.8950 h5         1 RFZ       0.087800
     24 H1'          0.1620     0.5830    -2.6760 h2         1 RFZ       0.100700
     25 H4'         -1.0080     0.6060    -5.0380 h1         1 RFZ       0.091700
     26 H5'         -2.9980    -0.4370    -6.1720 h1         1 RFZ       0.031700
     27 H5'A        -3.8190    -0.4960    -4.6060 h1         1 RFZ       0.031700
     28 HO5'        -4.2380     1.4210    -5.9790 ho         1 RFZ       0.407000
     29 H3'         -2.0680    -2.1280    -4.3520 h1         1 RFZ       0.049700
     30 HO3'        -0.5930    -2.5120    -5.8430 ho         1 RFZ       0.405000
     31 H2'         -1.0430    -2.1480    -2.2920 h1         1 RFZ       0.060700
     32 HO2'         0.9650    -2.6950    -2.9010 ho         1 RFZ       0.413000
@<TRIPOS>BOND
     1    18    17 1
     2    17    14 1
     3    17    19 1
     4    14    15 1
     5    14    13 1
     6    15    16 1
     7    20    19 1
     8    19    12 1
     9    13    12 1
    10    12    11 1
    11    11    10 1
    12    11     1 1
    13    10     9 2
    14     2     1 ar
    15     2     3 ar
    16     1     8 ar
    17     4     3 1
    18     3     5 ar
    19     9     8 1
    20     8     7 ar
    21     5     7 ar
    22     5     6 1
    23     2    21 1
    24     7    22 1
    25    10    23 1
    26    12    24 1
    27    14    25 1
    28    15    26 1
    29    15    27 1
    30    16    28 1
    31    17    29 1
    32    18    30 1
    33    19    31 1
    34    20    32 1
@<TRIPOS>SUBSTRUCTURE
     1 RFZ         1 TEMP              0 ****  ****    0 ROOT
