@<TRIPOS>MOLECULE
molecule
   36    38     1     0     0
SMALL
bcc


@<TRIPOS>ATOM
      1 ClAW         0.0000     0.0000     0.0000 cl         1 RG2      -0.132400
      2 CAV          1.7350     0.0000     0.0000 ca         1 RG2       0.029400
      3 CAY          2.4280     0.0000     1.1970 ca         1 RG2      -0.127500
      4 CAZ          3.8100    -0.0010     1.1970 ca         1 RG2      -0.099500
      5 CAU          2.4270    -0.0050    -1.1980 ca         1 RG2      -0.127500
      6 CAT          3.8090    -0.0050    -1.1990 ca         1 RG2      -0.099500
      7 CAS          4.5010     0.0010    -0.0010 ca         1 RG2      -0.089300
      8 CAR          6.0080     0.0010    -0.0020 c3         1 RG2       0.276100
      9 NAQ          6.4960     1.3820    -0.0080 nu         1 RG2      -0.896900
     10 CAP          7.8550     1.6350    -0.0090 ca         1 RG2       0.609900
     11 CAC          8.3150     2.9660    -0.1260 ca         1 RG2       0.277500
     12 CAB          7.3340     4.0660    -0.2450 c          1 RG2       0.788100
     13 OAA          7.7580     5.3250    -0.4720 o          1 RG2      -0.800800
     14 OBA          6.1470     3.8360    -0.1380 o          1 RG2      -0.800800
     15 NAD          9.6060     3.2430    -0.1310 nb         1 RG2      -0.582000
     16 CAE         10.4930     2.2530    -0.0230 ca         1 RG2       0.249300
     17 CAF         11.8780     2.4970    -0.0220 ca         1 RG2      -0.126300
     18 CAG         12.7410     1.4510     0.0890 ca         1 RG2      -0.152000
     19 NAO          8.7030     0.6290     0.1030 nb         1 RG2      -0.789000
     20 CAN         10.0180     0.8730     0.0970 ca         1 RG2       0.340300
     21 CAM         10.9620    -0.1610     0.2090 ca         1 RG2      -0.136300
     22 CAH         12.2890     0.1390     0.2040 ca         1 RG2      -0.173300
     23 CAI         13.2950    -0.9760     0.3260 c3         1 RG2       0.669200
     24 FAL         14.5880    -0.4430     0.2980 f          1 RG2      -0.232633
     25 FAJ         13.0960    -1.6540     1.5320 f          1 RG2      -0.232633
     26 FAK         13.1350    -1.8660    -0.7430 f          1 RG2      -0.232633
     27 H1           1.8870    -0.0010     2.1350 ha         1 RG2       0.137000
     28 H2           4.3520     0.0020     2.1350 ha         1 RG2       0.143000
     29 H3           1.8850    -0.0100    -2.1370 ha         1 RG2       0.137000
     30 H4           4.3510    -0.0070    -2.1370 ha         1 RG2       0.143000
     31 H5           6.3690    -0.5140    -0.8840 h1         1 RG2       0.045700
     32 H6           6.3690    -0.5060     0.8850 h1         1 RG2       0.045700
     33 H7           5.8460     2.1430     0.0220 hn         1 RG2       0.514800
     34 H9          12.2540     3.5090    -0.1100 ha         1 RG2       0.149000
     35 H10         13.8070     1.6450     0.0900 ha         1 RG2       0.133000
     36 H11         10.6360    -1.1900     0.2990 ha         1 RG2       0.144000
@<TRIPOS>BOND
     1    14    12 1
     2    13    12 1
     3    12    11 1
     4    11    15 ar
     5    11    10 ar
     6     5     6 ar
     7     5     2 ar
     8    15    16 ar
     9     6     7 ar
    10     9    10 1
    11     9     8 1
    12     1     2 1
    13    10    19 ar
    14     2     3 ar
    15    16    17 ar
    16    16    20 ar
    17    17    18 ar
    18     7     8 1
    19     7     4 ar
    20    19    20 ar
    21    20    21 ar
    22     3     4 ar
    23    18    22 ar
    24    21    22 ar
    25    22    23 1
    26    25    23 1
    27    23    24 1
    28    23    26 1
    29     3    27 1
    30     4    28 1
    31     5    29 1
    32     6    30 1
    33     8    31 1
    34     8    32 1
    35     9    33 1
    36    17    34 1
    37    18    35 1
    38    21    36 1
@<TRIPOS>SUBSTRUCTURE
     1 RG2         1 TEMP              0 ****  ****    0 ROOT
