@<TRIPOS>MOLECULE
molecule
   32    31     1     0     0
SMALL
bcc


@<TRIPOS>ATOM
      1 OA2          0.0000     0.0000     0.0000 o          1 RGE      -0.773800
      2 C            1.3420     0.0000     0.0000 c          1 RGE       0.869600
      3 OA1          1.9460     0.0020    -1.0460 o          1 RGE      -0.773800
      4 CA           2.0950     0.0000     1.3050 c3         1 RGE      -0.018500
      5 N            3.4680    -0.4740     1.0790 nz         1 RGE      -0.792600
      6 CB           2.1330     1.4190     1.8730 c3         1 RGE      -0.085400
      7 CG           2.7870     1.3990     3.2560 c3         1 RGE      -0.123400
      8 CD           2.8240     2.8180     3.8240 c3         1 RGE       0.252800
      9 NE           3.4510     2.7990     5.1490 nu         1 RGE      -0.883200
     10 C1           3.5940     3.9620     5.8560 c2         1 RGE       0.677200
     11 NH           3.1770     5.0800     5.3550 n2         1 RGE      -0.896100
     12 C2           4.2390     3.9420     7.2190 c3         1 RGE      -0.189400
     13 S3           4.2830     5.6260     7.8920 s4         1 RGE       0.285600
     14 O4           5.1040     6.4440     7.0690 o          1 RGE      -0.490200
     15 C5           5.0790     5.3990     9.5060 c3         1 RGE      -0.100800
     16 HA           1.5980    -0.6570     2.0090 hx         1 RGE       0.102700
     17 HN1          3.4590    -1.2110     0.4020 hn         1 RGE       0.439133
     18 HN2          4.0300     0.2820     0.7410 hn         1 RGE       0.439133
     19 HB1C         2.7060     2.0580     1.2120 hc         1 RGE       0.090700
     20 HB2C         1.1230     1.8010     1.9570 hc         1 RGE       0.090700
     21 HG1C         3.7970     1.0170     3.1730 hc         1 RGE       0.031200
     22 HG2C         2.2130     0.7610     3.9180 hc         1 RGE       0.031200
     23 HD1C         1.8140     3.2000     3.9080 h1         1 RGE       0.062700
     24 HD2C         3.3980     3.4570     3.1630 h1         1 RGE       0.062700
     25 HH1N         3.2820     5.9300     5.8720 hn         1 RGE       0.410400
     26 H2A          5.2490     3.5600     7.1340 h1         1 RGE       0.086700
     27 H2B          3.6650     3.3040     7.8800 h1         1 RGE       0.086700
     28 H53C         5.1720     6.3580    10.0000 h1         1 RGE       0.078367
     29 H51C         4.4780     4.7360    10.1150 h1         1 RGE       0.078367
     30 H52C         6.0630     4.9680     9.3660 h1         1 RGE       0.078367
     31 H1           3.7700     1.9340     5.5380 hn         1 RGE       0.433800
     32 HN3          3.8410    -0.8350     1.9340 hn         1 RGE       0.439133
@<TRIPOS>BOND
     1     1     2 1
     2     2     3 1
     3     2     4 1
     4     4     5 1
     5     4     6 1
     6     6     7 1
     7     7     8 1
     8     8     9 1
     9     9    10 1
    10    10    11 2
    11    10    12 1
    12    12    13 1
    13    13    14 2
    14    13    15 1
    15     4    16 1
    16     5    17 1
    17     5    18 1
    18     6    19 1
    19     6    20 1
    20     7    21 1
    21     7    22 1
    22     8    23 1
    23     8    24 1
    24    11    25 1
    25    12    26 1
    26    12    27 1
    27    15    29 1
    28    15    30 1
    29    15    28 1
    30     9    31 1
    31    32     5 1
@<TRIPOS>SUBSTRUCTURE
     1 RGE         1 TEMP              0 ****  ****    0 ROOT
