@<TRIPOS>MOLECULE
RGE
   32    31     1     0     0
SMALL
bcc


@<TRIPOS>ATOM
      1 OA2          0.0000     0.0000     0.0000 o          1 RGE      -0.814300
      2 C            1.3420     0.0000     0.0000 c          1 RGE       0.955600
      3 OA1          1.9460     0.0020    -1.0460 o          1 RGE      -0.814300
      4 CA           2.0950     0.0000     1.3050 c3         1 RGE      -0.202500
      5 N            3.4680    -0.4740     1.0790 nz         1 RGE       0.081400
      6 CB           2.1330     1.4190     1.8730 c3         1 RGE      -0.017400
      7 CG           2.7870     1.3990     3.2560 c3         1 RGE      -0.054400
      8 CD           2.8240     2.8180     3.8240 c3         1 RGE       0.173800
      9 NE           3.4510     2.7990     5.1490 nu         1 RGE      -0.550200
     10 C1           3.5940     3.9620     5.8560 c2         1 RGE       0.482200
     11 NH           3.1770     5.0800     5.3550 n2         1 RGE      -0.733100
     12 C2           4.2390     3.9420     7.2190 c3         1 RGE       0.071600
     13 S3           4.2830     5.6260     7.8920 s4         1 RGE      -0.018400
     14 O4           5.1040     6.4440     7.0690 o          1 RGE      -0.421200
     15 C5           5.0790     5.3990     9.5060 c3         1 RGE       0.108200
     16 HA           1.5980    -0.6570     2.0090 hx         1 RGE       0.086700
     17 HN1          3.4590    -1.2110     0.4020 hn         1 RGE       0.211467
     18 HN2          3.8490    -0.8150     1.9390 hn         1 RGE       0.211467
     19 HB1C         2.7060     2.0580     1.2120 hc         1 RGE       0.057700
     20 HB2C         1.1230     1.8010     1.9570 hc         1 RGE       0.057700
     21 HG1C         3.7970     1.0170     3.1730 hc         1 RGE       0.008200
     22 HG2C         2.2130     0.7610     3.9180 hc         1 RGE       0.008200
     23 HD1C         1.8140     3.2000     3.9080 h1         1 RGE       0.025200
     24 HD2C         3.3980     3.4570     3.1630 h1         1 RGE       0.025200
     25 HH1N         2.7490     5.0940     4.4510 hn         1 RGE       0.329400
     26 H2A          3.6650     3.3040     7.8800 h1         1 RGE       0.049700
     27 H2B          5.2490     3.5600     7.1340 h1         1 RGE       0.049700
     28 H53C         5.1720     6.3580    10.0010 h1         1 RGE       0.043367
     29 H51C         6.0640     4.9690     9.3660 h1         1 RGE       0.043367
     30 H52C         4.4780     4.7350    10.1150 h1         1 RGE       0.043367
     31 H1           3.7700     1.9340     5.5380 hn         1 RGE       0.289800
     32 HN3          4.0350     0.2870     0.7620 hn         1 RGE       0.211467
@<TRIPOS>BOND
     1     1     2 1   
     2     2     3 1   
     3     2     4 1   
     4     4     5 1   
     5     4     6 1   
     6     4    16 1   
     7     5    17 1   
     8     5    18 1   
     9     5    32 1   
    10     6     7 1   
    11     6    19 1   
    12     6    20 1   
    13     7     8 1   
    14     7    21 1   
    15     7    22 1   
    16     8     9 1   
    17     8    23 1   
    18     8    24 1   
    19     9    10 1   
    20     9    31 1   
    21    10    11 2   
    22    10    12 1   
    23    11    25 1   
    24    12    13 1   
    25    12    26 1   
    26    12    27 1   
    27    13    14 2   
    28    13    15 1   
    29    15    28 1   
    30    15    29 1   
    31    15    30 1   
@<TRIPOS>SUBSTRUCTURE
     1 RGE         1 TEMP              0 ****  ****    0 ROOT
