@<TRIPOS>MOLECULE
RGJ
   44    46     1     0     0
SMALL
bcc


@<TRIPOS>ATOM
      1 Cl           0.0000     0.0000     0.0000 cl         1 RGJ      -0.030400
      2 C14          1.7350     0.0000     0.0000 ca         1 RGJ      -0.069600
      3 N2           5.9050    -0.0010     0.0030 nu         1 RGJ      -0.237000
      4 C10          6.5920    -0.1220     1.1920 ca         1 RGJ       0.112600
      5 O            5.8570     2.4850     0.5020 o          1 RGJ      -0.646100
      6 N            6.5440     3.3850     2.4130 ns         1 RGJ      -0.195900
      7 C9           7.0670    -1.3780     1.6360 ca         1 RGJ      -0.152300
      8 C7           7.3220    -3.7400     1.3320 ca         1 RGJ       0.145100
      9 O1           7.1130    -4.8650     0.5980 os         1 RGJ      -0.290900
     10 C17          6.3960    -4.7150    -0.6280 c3         1 RGJ       0.239700
     11 C6           8.0190    -3.8220     2.5460 ca         1 RGJ       0.157100
     12 C18          9.1800    -5.0440     4.2220 c3         1 RGJ       0.239700
     13 C11          4.5050    -0.0000     0.0020 ca         1 RGJ       0.055600
     14 C2           6.8490     0.9980     1.9980 ca         1 RGJ      -0.294900
     15 C            5.9830     4.6890     2.0530 c3         1 RGJ       0.086300
     16 C4           7.7700    -1.4520     2.8630 ca         1 RGJ       0.403600
     17 N1           7.9770    -0.3440     3.5900 nb         1 RGJ      -0.568000
     18 C3           7.5540     0.8310     3.2010 ca         1 RGJ       0.419200
     19 C8           6.8520    -2.5410     0.8810 ca         1 RGJ      -0.183000
     20 C5           8.2430    -2.6960     3.3060 ca         1 RGJ      -0.254300
     21 O2           8.4780    -5.0260     2.9780 os         1 RGJ      -0.289900
     22 C13          2.4260     0.0000     1.1990 ca         1 RGJ      -0.059000
     23 C12          3.8070    -0.0010     1.2020 ca         1 RGJ      -0.157000
     24 C15          2.4260    -0.0050    -1.1990 ca         1 RGJ      -0.083000
     25 C16          3.8080    -0.0060    -1.2020 ca         1 RGJ       0.037900
     26 F            4.4830    -0.0050    -2.3730 f          1 RGJ      -0.128900
     27 H13          1.8830    -0.0000     2.1360 ha         1 RGJ       0.112000
     28 H15          1.8830    -0.0100    -2.1370 ha         1 RGJ       0.125000
     29 H2           6.4060     0.1200    -0.8550 hn         1 RGJ       0.308800
     30 H            7.0660     3.2820     3.2610 hn         1 RGJ       0.176500
     31 HC1          6.2410     5.4160     2.8140 h1         1 RGJ       0.011367
     32 HC2          4.9050     4.6110     1.9790 h1         1 RGJ       0.011367
     33 HC3          6.3890     5.0060     1.1000 h1         1 RGJ       0.011367
     34 H8           6.3810    -2.4760    -0.0920 ha         1 RGJ       0.139000
     35 H171         6.9140    -4.0100    -1.2660 h1         1 RGJ       0.001367
     36 H172         5.3980    -4.3490    -0.4210 h1         1 RGJ       0.001367
     37 H173         6.3320    -5.6740    -1.1280 h1         1 RGJ       0.001367
     38 H5           8.7820    -2.7700     4.2420 ha         1 RGJ       0.142000
     39 H181         9.4890    -6.0580     4.4470 h1         1 RGJ       0.001367
     40 H182         8.5300    -4.6820     5.0090 h1         1 RGJ       0.001367
     41 H183        10.0540    -4.4080     4.1530 h1         1 RGJ       0.001367
     42 H12          4.3470    -0.0010     2.1420 ha         1 RGJ       0.121000
     43 H3           7.7510     1.6970     3.8220 h4         1 RGJ      -0.023900
     44 C1           6.3840     2.3320     1.5870 c          1 RGJ       0.600700
@<TRIPOS>BOND
     1     1     2 1   
     2     2    22 ar  
     3     2    24 ar  
     4     3     4 1   
     5     3    13 1   
     6     3    29 1   
     7     4     7 ar  
     8     4    14 ar  
     9     5    44 2   
    10     6    15 1   
    11     6    30 1   
    12     6    44 1   
    13     7    16 ar  
    14     7    19 ar  
    15     8     9 1   
    16     8    11 ar  
    17     8    19 ar  
    18     9    10 1   
    19    10    35 1   
    20    10    36 1   
    21    10    37 1   
    22    11    20 ar  
    23    11    21 1   
    24    12    21 1   
    25    12    39 1   
    26    12    40 1   
    27    12    41 1   
    28    13    23 ar  
    29    13    25 ar  
    30    14    18 ar  
    31    14    44 1   
    32    15    31 1   
    33    15    32 1   
    34    15    33 1   
    35    16    17 ar  
    36    16    20 ar  
    37    17    18 ar  
    38    18    43 1   
    39    19    34 1   
    40    20    38 1   
    41    22    23 ar  
    42    22    27 1   
    43    23    42 1   
    44    24    25 ar  
    45    24    28 1   
    46    25    26 1   
@<TRIPOS>SUBSTRUCTURE
     1 RGJ         1 TEMP              0 ****  ****    0 ROOT
