@<TRIPOS>MOLECULE
molecule
   44    46     1     0     0
SMALL
bcc


@<TRIPOS>ATOM
      1 Cl           0.0000     0.0000     0.0000 cl         1 RGJ      -0.108400
      2 C14          1.7350     0.0000     0.0000 ca         1 RGJ      -0.002600
      3 N2           5.9050    -0.0010     0.0030 nu         1 RGJ      -0.689000
      4 C10          6.5920    -0.1220     1.1920 ca         1 RGJ       0.255600
      5 O            5.8570     2.4850     0.5020 o          1 RGJ      -0.596100
      6 N            6.5440     3.3850     2.4130 ns         1 RGJ      -0.587900
      7 C9           7.0670    -1.3780     1.6360 ca         1 RGJ      -0.166300
      8 C7           7.3220    -3.7400     1.3320 ca         1 RGJ       0.135100
      9 O1           7.1130    -4.8650     0.5980 os         1 RGJ      -0.309900
     10 C17          6.3960    -4.7150    -0.6280 c3         1 RGJ       0.124700
     11 C6           8.0190    -3.8220     2.5460 ca         1 RGJ       0.156100
     12 C18          9.1800    -5.0440     4.2220 c3         1 RGJ       0.123700
     13 C11          4.5050    -0.0000     0.0020 ca         1 RGJ       0.192600
     14 C2           6.8490     0.9980     1.9980 ca         1 RGJ      -0.299900
     15 C            5.9830     4.6890     2.0530 c3         1 RGJ       0.104300
     16 C4           7.7700    -1.4520     2.8630 ca         1 RGJ       0.448600
     17 N1           7.9770    -0.3440     3.5900 nb         1 RGJ      -0.687000
     18 C3           7.5540     0.8310     3.2010 ca         1 RGJ       0.449200
     19 C8           6.8520    -2.5410     0.8810 ca         1 RGJ      -0.183000
     20 C5           8.2430    -2.6960     3.3060 ca         1 RGJ      -0.262300
     21 O2           8.4780    -5.0260     2.9780 os         1 RGJ      -0.306900
     22 C13          2.4260     0.0000     1.1990 ca         1 RGJ      -0.090000
     23 C12          3.8070    -0.0010     1.2020 ca         1 RGJ      -0.169000
     24 C15          2.4260    -0.0050    -1.1990 ca         1 RGJ      -0.118000
     25 C16          3.8080    -0.0060    -1.2020 ca         1 RGJ       0.070900
     26 F            4.4830    -0.0050    -2.3730 f          1 RGJ      -0.142900
     27 H13          1.8830    -0.0000     2.1360 ha         1 RGJ       0.146000
     28 H15          1.8830    -0.0100    -2.1370 ha         1 RGJ       0.157000
     29 H2           6.4060     0.1200    -0.8550 hn         1 RGJ       0.471800
     30 H            7.0660     3.2820     3.2610 hn         1 RGJ       0.312500
     31 HC1          6.2410     5.4160     2.8140 h1         1 RGJ       0.043700
     32 HC2          4.9050     4.6110     1.9790 h1         1 RGJ       0.043700
     33 HC3          6.3890     5.0060     1.1000 h1         1 RGJ       0.043700
     34 H8           6.3810    -2.4760    -0.0920 ha         1 RGJ       0.158000
     35 H171         6.9140    -4.0100    -1.2660 h1         1 RGJ       0.045700
     36 H172         5.3980    -4.3490    -0.4210 h1         1 RGJ       0.045700
     37 H173         6.3320    -5.6740    -1.1280 h1         1 RGJ       0.045700
     38 H5           8.7820    -2.7700     4.2420 ha         1 RGJ       0.163000
     39 H181         9.4890    -6.0580     4.4470 h1         1 RGJ       0.046367
     40 H182         8.5300    -4.6820     5.0090 h1         1 RGJ       0.046367
     41 H183        10.0540    -4.4080     4.1530 h1         1 RGJ       0.046367
     42 H12          4.3470    -0.0010     2.1420 ha         1 RGJ       0.148000
     43 H3           7.7510     1.6970     3.8220 h4         1 RGJ       0.019100
     44 C1           6.3840     2.3320     1.5870 c          1 RGJ       0.675700
@<TRIPOS>BOND
     1     1     2 1
     2     2    22 ar
     3     2    24 ar
     4     3     4 1
     5     3    13 1
     6     4     7 ar
     7     4    14 ar
     8    44     5 2
     9    44     6 1
    10    44    14 1
    11     6    15 1
    12     7    16 ar
    13     7    19 ar
    14     8     9 1
    15     8    11 ar
    16     8    19 ar
    17     9    10 1
    18    11    20 ar
    19    11    21 1
    20    12    21 1
    21    13    23 ar
    22    13    25 ar
    23    14    18 ar
    24    16    17 ar
    25    16    20 ar
    26    17    18 ar
    27    22    23 ar
    28    24    25 ar
    29    25    26 1
    30    22    27 1
    31    24    28 1
    32     3    29 1
    33     6    30 1
    34    15    31 1
    35    15    32 1
    36    15    33 1
    37    19    34 1
    38    10    35 1
    39    10    36 1
    40    10    37 1
    41    20    38 1
    42    12    39 1
    43    12    40 1
    44    12    41 1
    45    23    42 1
    46    18    43 1
@<TRIPOS>SUBSTRUCTURE
     1 RGJ         1 TEMP              0 ****  ****    0 ROOT
