@<TRIPOS>MOLECULE
RGK
   29    31     1     0     0
SMALL
bcc


@<TRIPOS>ATOM
      1 C            0.0000     0.0000     0.0000 ca         1 RGK       0.053600
      2 N           -0.6950    -0.0000    -1.2060 nv         1 RGK      -0.563200
      3 O            1.4160     0.0030     7.0870 o          1 RGK      -0.667500
      4 C1           1.3920     0.0000     0.0000 ca         1 RGK      -0.119000
      5 N1           3.4280    -0.0010     3.6470 nc         1 RGK      -0.539100
      6 C2           2.0810     0.0000     1.1920 ca         1 RGK      -0.063000
      7 N2           1.4020     0.0010     4.8470 ns         1 RGK      -0.018400
      8 C3           1.3820     0.0010     2.4010 ca         1 RGK      -0.165900
      9 C4          -0.0150     0.0010     2.3980 ca         1 RGK      -0.063000
     10 C5          -0.6990     0.0070     1.2030 ca         1 RGK      -0.119000
     11 C6           2.1190     0.0000     3.6800 cd         1 RGK       0.362500
     12 C7           4.1650    -0.0000     4.7760 ca         1 RGK       0.157400
     13 C8           5.5620    -0.0010     4.7370 ca         1 RGK      -0.100000
     14 C9           6.2780    -0.0000     5.9120 ca         1 RGK      -0.063000
     15 C10          5.6290     0.0010     7.1400 ca         1 RGK      -0.131000
     16 C11          4.2520     0.0010     7.2060 ca         1 RGK      -0.015000
     17 C12          3.5080     0.0010     6.0280 ca         1 RGK      -0.218600
     18 C13          2.0380     0.0010     6.0410 c          1 RGK       0.621100
     19 HN          -0.9440     0.8670    -1.6410 hn         1 RGK       0.276800
     20 HNA         -0.9460    -0.8670    -1.6390 hn         1 RGK       0.276800
     21 H1           1.9330    -0.0010    -0.9380 ha         1 RGK       0.112500
     22 H2           3.1650    -0.0000     1.1920 ha         1 RGK       0.116000
     23 HN2          0.4020     0.0020     4.8160 hn         1 RGK       0.190500
     24 H4          -0.5600     0.0040     3.3350 ha         1 RGK       0.116000
     25 H5          -1.7820     0.0070     1.2000 ha         1 RGK       0.112500
     26 H8           6.0790    -0.0020     3.7850 ha         1 RGK       0.118000
     27 H9           7.3610    -0.0000     5.8790 ha         1 RGK       0.102000
     28 H10          6.2100     0.0020     8.0540 ha         1 RGK       0.107000
     29 H11          3.7530     0.0020     8.1670 ha         1 RGK       0.124000
@<TRIPOS>BOND
     1     1     2 1   
     2     1     4 ar  
     3     1    10 ar  
     4     2    19 1   
     5     2    20 1   
     6     3    18 2   
     7     4     6 ar  
     8     4    21 1   
     9     5    11 2   
    10     5    12 1   
    11     6     8 ar  
    12     6    22 1   
    13     7    11 1   
    14     7    18 1   
    15     7    23 1   
    16     8     9 ar  
    17     8    11 1   
    18     9    10 ar  
    19     9    24 1   
    20    10    25 1   
    21    12    13 ar  
    22    12    17 ar  
    23    13    14 ar  
    24    13    26 1   
    25    14    15 ar  
    26    14    27 1   
    27    15    16 ar  
    28    15    28 1   
    29    16    17 ar  
    30    16    29 1   
    31    17    18 1   
@<TRIPOS>SUBSTRUCTURE
     1 RGK         1 TEMP              0 ****  ****    0 ROOT
