@<TRIPOS>MOLECULE
molecule
   29    31     1     0     0
SMALL
bcc


@<TRIPOS>ATOM
      1 C            0.0000     0.0000     0.0000 ca         1 RGK       0.191600
      2 N           -0.6950    -0.0000    -1.2060 nv         1 RGK      -0.993200
      3 O            1.4160     0.0030     7.0870 o          1 RGK      -0.626500
      4 C1           1.3920     0.0000     0.0000 ca         1 RGK      -0.152500
      5 N1           3.4280    -0.0010     3.6470 nc         1 RGK      -0.652100
      6 C2           2.0810     0.0000     1.1920 ca         1 RGK      -0.084500
      7 N2           1.4020     0.0010     4.8470 ns         1 RGK      -0.472400
      8 C3           1.3820     0.0010     2.4010 ca         1 RGK      -0.160900
      9 C4          -0.0150     0.0010     2.3980 ca         1 RGK      -0.084500
     10 C5          -0.6990     0.0070     1.2030 ca         1 RGK      -0.152500
     11 C6           2.1190     0.0000     3.6800 cd         1 RGK       0.560500
     12 C7           4.1650    -0.0000     4.7760 ca         1 RGK       0.202400
     13 C8           5.5620    -0.0010     4.7370 ca         1 RGK      -0.124000
     14 C9           6.2780    -0.0000     5.9120 ca         1 RGK      -0.092000
     15 C10          5.6290     0.0010     7.1400 ca         1 RGK      -0.157000
     16 C11          4.2520     0.0010     7.2060 ca         1 RGK      -0.051000
     17 C12          3.5080     0.0010     6.0280 ca         1 RGK      -0.210600
     18 C13          2.0380     0.0010     6.0410 c          1 RGK       0.709100
     19 HN          -0.9440     0.8670    -1.6410 hn         1 RGK       0.432800
     20 HNA         -0.9460    -0.8670    -1.6390 hn         1 RGK       0.432800
     21 H1           1.9330    -0.0010    -0.9380 ha         1 RGK       0.143000
     22 H2           3.1650    -0.0000     1.1920 ha         1 RGK       0.144000
     23 HN2          0.4020     0.0020     4.8160 hn         1 RGK       0.339500
     24 H4          -0.5600     0.0040     3.3350 ha         1 RGK       0.144000
     25 H5          -1.7820     0.0070     1.2000 ha         1 RGK       0.143000
     26 H8           6.0790    -0.0020     3.7850 ha         1 RGK       0.148000
     27 H9           7.3610    -0.0000     5.8790 ha         1 RGK       0.134000
     28 H10          6.2100     0.0020     8.0540 ha         1 RGK       0.135000
     29 H11          3.7530     0.0020     8.1670 ha         1 RGK       0.154000
@<TRIPOS>BOND
     1     1     2 1
     2     1     4 ar
     3     1    10 ar
     4     3    18 2
     5     4     6 ar
     6     5    11 2
     7     5    12 1
     8     6     8 ar
     9     7    11 1
    10     7    18 1
    11     8     9 ar
    12     8    11 1
    13     9    10 ar
    14    12    13 ar
    15    12    17 ar
    16    13    14 ar
    17    14    15 ar
    18    15    16 ar
    19    16    17 ar
    20    17    18 1
    21     2    19 1
    22     2    20 1
    23     4    21 1
    24     6    22 1
    25     7    23 1
    26     9    24 1
    27    10    25 1
    28    13    26 1
    29    14    27 1
    30    15    28 1
    31    16    29 1
@<TRIPOS>SUBSTRUCTURE
     1 RGK         1 TEMP              0 ****  ****    0 ROOT
