@<TRIPOS>MOLECULE
molecule
   22    21     1     0     0
SMALL
bcc


@<TRIPOS>ATOM
      1 PA           0.0000     0.0000     0.0000 p5         1 RGP       1.126900
      2 OA1          1.6100     0.0000     0.0000 o          1 RGP      -0.878167
      3 OA2         -0.5370     0.0000     1.5180 o          1 RGP      -0.878167
      4 OA3         -0.4940    -1.2080    -0.6980 o          1 RGP      -0.878167
      5 OE2         -0.5370     1.3150    -0.7580 os         1 RGP      -0.506500
      6 CD          -0.2980     1.4780    -2.0690 c          1 RGP       0.676100
      7 OE1          0.3200     0.6380    -2.6800 o          1 RGP      -0.524000
      8 CG          -0.8000     2.7090    -2.7790 c3         1 RGP      -0.176400
      9 CB          -0.3960     2.6480    -4.2540 c3         1 RGP      -0.078400
     10 CA          -0.9060     3.8970    -4.9750 c3         1 RGP      -0.023500
     11 C           -0.6160     3.7790    -6.4490 c          1 RGP       0.880600
     12 O            0.3360     4.3510    -6.9250 o          1 RGP      -0.802800
     13 OXT         -1.4160     3.0410    -7.2330 o          1 RGP      -0.802800
     14 N           -0.2300     5.0840    -4.4350 nz         1 RGP      -0.790600
     15 HG1         -0.3670     3.5900    -2.3220 hc         1 RGP       0.029700
     16 HG2         -1.8800     2.7550    -2.7020 hc         1 RGP       0.029700
     17 HB1         -0.8280     1.7650    -4.7110 hc         1 RGP       0.100200
     18 HB2          0.6840     2.6020    -4.3310 hc         1 RGP       0.100200
     19 HA          -1.9750     3.9900    -4.8240 hx         1 RGP       0.093700
     20 HN1          0.7340     4.8730    -4.2710 hn         1 RGP       0.433800
     21 HN2         -0.3000     5.8360    -5.0930 hn         1 RGP       0.433800
     22 HN3         -0.6640     5.3530    -3.5740 hn         1 RGP       0.433800
@<TRIPOS>BOND
     1     1     2 1
     2     1     3 1
     3     1     4 1
     4     1     5 1
     5     5     6 1
     6     6     7 2
     7     6     8 1
     8     8     9 1
     9     8    15 1
    10     8    16 1
    11     9    10 1
    12     9    17 1
    13     9    18 1
    14    10    11 1
    15    10    14 1
    16    10    19 1
    17    11    12 1
    18    11    13 1
    19    14    20 1
    20    14    21 1
    21    22    14 1
@<TRIPOS>SUBSTRUCTURE
     1 RGP         1 TEMP              0 ****  ****    0 ROOT
