@<TRIPOS>MOLECULE
RGS
   74    69     1     0     0
SMALL
bcc


@<TRIPOS>ATOM
      1 C1          1.1200    1.7530   -0.1020 c         1 RGS      0.926100
      2 O1A        -0.0150    2.2780    0.0310 o         1 RGS     -0.814550
      3 O1B         2.2000    2.3940   -0.2170 o         1 RGS     -0.814550
      4 C2          1.2220    0.1920   -0.1030 c3        1 RGS     -0.013000
      5 N2         -0.1500   -0.4110   -0.1580 n4        1 RGS     -0.832100
      6 C3          2.1430   -0.3180   -1.2040 c3        1 RGS     -0.119900
      7 C4          1.9000    0.3140   -2.5710 c3        1 RGS      0.118300
      8 N4          2.8190    1.4350   -2.9010 n4        1 RGS     -0.673800
      9 C           4.1360    1.0250   -3.4970 c         1 RGS      0.485600
     10 O           4.3920   -0.1700   -3.5300 o         1 RGS     -0.445100
     11 CA          5.0140    2.1740   -4.0830 c3        1 RGS      0.183500
     12 N           6.2320    1.7120   -4.6530 n3        1 RGS     -0.905300
     13 C5          4.1530    0.5910   -7.7340 c1        1 RGS      0.552600
     14 O5          4.0330    0.9210   -6.5850 o         1 RGS     -0.516000
     15 C6          4.2810    0.2380   -8.9790 c2        1 RGS     -0.440600
     16 C7          5.9810    2.8540  -12.2820 c1        1 RGS      0.891000
     17 O7A         5.4760    2.4600  -11.2750 o         1 RGS     -0.445000
     18 O7B         6.4820    3.2480  -13.2810 o         1 RGS     -0.445000
     19 CB          5.2040    3.2530   -3.0140 c3        1 RGS     -0.071800
     20 SG          5.5880    2.4170   -1.4960 ss        1 RGS     -0.138600
     21 SG'         6.1430    3.8270   -0.0560 ss        1 RGS     -0.138600
     22 CB'         4.7530    4.0490    1.0020 c3        1 RGS     -0.071800
     23 CA'         4.2680    5.4950    1.1320 c3        1 RGS      0.183500
     24 N'          5.3320    6.4220    1.3240 n3        1 RGS     -0.905300
     25 C5'         1.0420    6.3480    3.6890 c1        1 RGS      0.552600
     26 O5'         1.3360    6.0370    2.5630 o         1 RGS     -0.516000
     27 C6'         0.7250    6.6880    4.9020 c2        1 RGS     -0.440600
     28 C7'         6.1970    3.0790    5.1280 c1        1 RGS      0.891000
     29 O11         5.4120    3.1790    4.2320 o         1 RGS     -0.445000
     30 O12         6.9710    2.9790    6.0190 o         1 RGS     -0.445000
     31 C'          3.3500    5.8590   -0.0690 c         1 RGS      0.485600
     32 O'          3.5870    6.7000   -0.9250 o         1 RGS     -0.445100
     33 N4'         2.0290    5.1450   -0.1560 n4        1 RGS     -0.673800
     34 C4'         0.9090    6.0330   -0.5680 c3        1 RGS      0.118300
     35 C3'        -0.2850    5.2960   -1.1670 c3        1 RGS     -0.119900
     36 C2'        -0.1450    5.1250   -2.6830 c3        1 RGS     -0.013000
     37 N2'        -1.4690    4.8840   -3.3460 n4        1 RGS     -0.832100
     38 C1'         0.8070    3.9300   -2.9960 c         1 RGS      0.926100
     39 O13         0.3090    2.8440   -3.4010 o         1 RGS     -0.814550
     40 O14         2.0420    4.1060   -2.8170 o         1 RGS     -0.814550
     41 H2          1.6650   -0.0950    0.8990 hx        1 RGS      0.122200
     42 HN21       -0.4120   -0.6130   -1.1240 hn        1 RGS      0.463633
     43 HN22       -0.1940   -1.2690    0.3930 hn        1 RGS      0.463633
     44 H31         2.0550   -1.4340   -1.3120 hc        1 RGS      0.104700
     45 H32         3.1970   -0.1200   -0.8530 hc        1 RGS      0.104700
     46 H41         2.0250   -0.4740   -3.3700 hx        1 RGS      0.111950
     47 H42         0.8530    0.7370   -2.6380 hx        1 RGS      0.111950
     48 HN4         3.0140    1.9980   -2.0440 hn        1 RGS      0.494300
     49 HA          4.3880    2.6110   -4.9290 h1        1 RGS      0.118700
     50 HN          6.8870    1.3550   -3.9890 hn        1 RGS      0.405550
     51 H61         4.0930   -0.7900   -9.3150 ha        1 RGS      0.203250
     52 H62         4.5970    0.9560   -9.7530 ha        1 RGS      0.203250
     53 HB1         4.2690    3.8610   -2.9210 h1        1 RGS      0.123700
     54 HB2         6.0300    3.9460   -3.3170 h1        1 RGS      0.123700
     55 HB'1        3.9070    3.3640    0.7460 h1        1 RGS      0.123700
     56 HB'2        5.1260    3.7360    2.0230 h1        1 RGS      0.123700
     57 HA'         3.5910    5.5570    2.0470 h1        1 RGS      0.118700
     58 HN'         6.0610    6.3510    0.6410 hn        1 RGS      0.405550
     59 H6'1        0.9280    7.6960    5.2940 ha        1 RGS      0.203250
     60 H6'2        0.2420    5.9860    5.5970 ha        1 RGS      0.203250
     61 HN4'        2.1310    4.3620   -0.8440 hn        1 RGS      0.494300
     62 H4'1        0.5710    6.5870    0.3580 hx        1 RGS      0.111950
     63 H4'2        1.3150    6.7840   -1.3090 hx        1 RGS      0.111950
     64 H3'1       -1.1910    5.9160   -0.9230 hc        1 RGS      0.104700
     65 H3'2       -0.4240    4.2850   -0.6820 hc        1 RGS      0.104700
     66 H2'         0.2970    6.0600   -3.1410 hx        1 RGS      0.122200
     67 H2'1       -1.6130    3.8580   -3.3980 hn        1 RGS      0.463633
     68 H2'2       -2.2330    5.3170   -2.8250 hn        1 RGS      0.463633
     69 H23        -0.8130    0.2910    0.2240 hn        1 RGS      0.463633
     70 H421        2.3330    2.0740   -3.5630 hn        1 RGS      0.494300
     71 H21         6.0900    1.0930   -5.4250 hn        1 RGS      0.405550
     72 H'2         5.0270    7.3630    1.4530 hn        1 RGS      0.405550
     73 H4'3        1.8100    4.7080    0.7500 hn        1 RGS      0.494300
     74 H2'3       -1.4470    5.2530   -4.2990 hn        1 RGS      0.463633
@<TRIPOS>BOND
     1    1    2 1   
     2    1    3 1   
     3    1    4 1   
     4    4    5 1   
     5    4    6 1   
     6    4   41 1   
     7    5   42 1   
     8    5   43 1   
     9    5   69 1   
    10    6    7 1   
    11    6   44 1   
    12    6   45 1   
    13    7    8 1   
    14    7   46 1   
    15    7   47 1   
    16    8    9 1   
    17    8   48 1   
    18    8   70 1   
    19    9   10 2   
    20    9   11 1   
    21   11   12 1   
    22   11   19 1   
    23   11   49 1   
    24   12   50 1   
    25   12   71 1   
    26   13   14 2   
    27   13   15 2   
    28   15   51 1   
    29   15   52 1   
    30   16   17 2   
    31   16   18 2   
    32   19   20 1   
    33   19   53 1   
    34   19   54 1   
    35   20   21 1   
    36   21   22 1   
    37   22   23 1   
    38   22   55 1   
    39   22   56 1   
    40   23   24 1   
    41   23   31 1   
    42   23   57 1   
    43   24   58 1   
    44   24   72 1   
    45   25   26 2   
    46   25   27 2   
    47   27   59 1   
    48   27   60 1   
    49   28   29 2   
    50   28   30 2   
    51   31   32 2   
    52   31   33 1   
    53   33   34 1   
    54   33   61 1   
    55   33   73 1   
    56   34   35 1   
    57   34   62 1   
    58   34   63 1   
    59   35   36 1   
    60   35   64 1   
    61   35   65 1   
    62   36   37 1   
    63   36   38 1   
    64   36   66 1   
    65   37   67 1   
    66   37   68 1   
    67   37   74 1   
    68   38   39 1   
    69   38   40 1   
@<TRIPOS>SUBSTRUCTURE
     1 RGS         1 TEMP              0 ****  ****    0 ROOT
