@<TRIPOS>MOLECULE
molecule
   44    46     1     0     0
SMALL
bcc


@<TRIPOS>ATOM
      1 N16          0.0000     0.0000     0.0000 nh         1 RGZ      -0.834300
      2 C16          1.4650     0.0000     0.0000 c3         1 RGZ       0.233100
      3 C15         -0.7320     0.0000     1.2690 c3         1 RGZ       0.245800
      4 C14         -0.9880     1.4430     1.7100 c3         1 RGZ       0.114400
      5 O13         -1.8560     2.0810     0.7710 os         1 RGZ      -0.297900
      6 C10         -2.1860     3.3760     1.0160 ca         1 RGZ       0.153100
      7 C9          -3.0250     4.0570     0.1460 ca         1 RGZ      -0.192000
      8 C8          -3.3590     5.3730     0.3980 ca         1 RGZ      -0.077500
      9 C11         -1.6870     4.0190     2.1410 ca         1 RGZ      -0.192000
     10 C12         -2.0240     5.3360     2.3880 ca         1 RGZ      -0.077500
     11 C7          -2.8560     6.0130     1.5170 ca         1 RGZ      -0.151300
     12 C6          -3.2210     7.4500     1.7880 c3         1 RGZ      -0.003100
     13 C5          -4.4890     7.5010     2.6440 c3         1 RGZ      -0.066600
     14 S1          -4.1740     6.8180     4.3060 ss         1 RGZ      -0.240700
     15 C2          -4.5520     8.3330     5.1450 c          1 RGZ       0.736100
     16 O2          -4.5190     8.5140     6.3470 o          1 RGZ      -0.545500
     17 N3          -4.8780     9.2380     4.2200 ns         1 RGZ      -0.583500
     18 C4          -4.8820     8.9330     2.9340 c          1 RGZ       0.701500
     19 O4          -5.1720     9.7290     2.0650 o          1 RGZ      -0.575500
     20 C21         -0.7020    -0.0890    -3.5930 ca         1 RGZ      -0.056000
     21 C20         -2.0850     0.0160    -3.5440 ca         1 RGZ      -0.315300
     22 C19         -2.7130     0.1120    -2.3190 ca         1 RGZ       0.464200
     23 N18         -2.0150     0.1040    -1.1990 nb         1 RGZ      -0.742000
     24 C22          0.0030    -0.0970    -2.4030 ca         1 RGZ      -0.317300
     25 C17         -0.6950     0.0040    -1.2040 ca         1 RGZ       0.706200
     26 H22          1.0830    -0.1780    -2.4040 ha         1 RGZ       0.135000
     27 H19         -3.7920     0.1940    -2.2760 h4         1 RGZ       0.019100
     28 H20         -2.6650     0.0240    -4.4590 ha         1 RGZ       0.134000
     29 H161         1.8270     0.0260     1.0210 h1         1 RGZ       0.037033
     30 H162         1.8270    -0.8970    -0.4880 h1         1 RGZ       0.037033
     31 H163         1.8270     0.8710    -0.5330 h1         1 RGZ       0.037033
     32 H151        -0.1450    -0.5090     2.0240 h1         1 RGZ       0.069700
     33 H152        -1.6780    -0.5120     1.1410 h1         1 RGZ       0.069700
     34 H141        -1.4520     1.4450     2.6890 h1         1 RGZ       0.036200
     35 H142        -0.0480     1.9800     1.7540 h1         1 RGZ       0.036200
     36 H9          -3.4190     3.5570    -0.7300 ha         1 RGZ       0.142500
     37 H11         -1.0350     3.4890     2.8240 ha         1 RGZ       0.142500
     38 H8          -4.0120     5.9060    -0.2820 ha         1 RGZ       0.136500
     39 H12         -1.6340     5.8390     3.2640 ha         1 RGZ       0.136500
     40 H61C        -3.3980     7.9610     0.8500 hc         1 RGZ       0.068200
     41 H62C        -2.4090     7.9350     2.3160 hc         1 RGZ       0.068200
     42 H5          -5.3040     6.9730     2.1640 h1         1 RGZ       0.123700
     43 H3          -5.1260    10.1640     4.5060 hn         1 RGZ       0.349500
     44 H21         -0.1850    -0.1660    -4.5430 ha         1 RGZ       0.133000
@<TRIPOS>BOND
     1     1     2 1
     2     1     3 1
     3     1    25 1
     4     3     4 1
     5     4     5 1
     6     5     6 1
     7     6     7 ar
     8     6     9 ar
     9     7     8 ar
    10     8    11 ar
    11     9    10 ar
    12    10    11 ar
    13    11    12 1
    14    12    13 1
    15    13    14 1
    16    13    18 1
    17    14    15 1
    18    15    16 2
    19    15    17 1
    20    17    18 1
    21    18    19 2
    22    20    21 ar
    23    20    24 ar
    24    21    22 ar
    25    22    23 ar
    26    23    25 ar
    27    24    25 ar
    28     2    29 1
    29     2    30 1
    30     2    31 1
    31     3    32 1
    32     3    33 1
    33     4    34 1
    34     4    35 1
    35     7    36 1
    36     9    37 1
    37     8    38 1
    38    10    39 1
    39    12    40 1
    40    12    41 1
    41    13    42 1
    42    17    43 1
    43    20    44 1
    44    24    26 1
    45    22    27 1
    46    21    28 1
@<TRIPOS>SUBSTRUCTURE
     1 RGZ         1 TEMP              0 ****  ****    0 ROOT
