@<TRIPOS>MOLECULE
molecule
   31    33     1     0     0
SMALL
bcc


@<TRIPOS>ATOM
      1 O1           0.0000     0.0000     0.0000 o          1 RH1      -0.514100
      2 O2           5.2390    -0.0000     0.0620 o          1 RH1      -0.520100
      3 N1           1.2730     0.0030     2.4790 nm         1 RH1      -0.848400
      4 N2           3.9660    -0.0100    -2.4170 nm         1 RH1      -0.761400
      5 C1           1.2160     0.0000     0.0000 c          1 RH1       0.554500
      6 C2           1.9600     0.0000     1.2890 cc         1 RH1       0.274800
      7 C3           3.3140     0.0010     1.2880 cd         1 RH1      -0.245400
      8 C4           4.0230    -0.0020     0.0620 c          1 RH1       0.582500
      9 C5           3.2790    -0.0060    -1.2270 cc         1 RH1       0.210800
     10 C6           1.9250    -0.0090    -1.2270 cd         1 RH1      -0.321400
     11 C7           0.5920     0.7670     3.5260 cx         1 RH1       0.218300
     12 C8           0.6980    -0.7570     3.5920 cx         1 RH1       0.218300
     13 C9           5.2530    -0.0110    -3.1170 cx         1 RH1       0.191300
     14 C10          3.9290    -0.0200    -3.8810 cx         1 RH1       0.191300
     15 C11          4.0680     0.0060     2.5940 c3         1 RH1       0.206600
     16 O3           3.1450     0.1470     3.6750 oh         1 RH1      -0.594800
     17 C12          1.1710    -0.0120    -2.5320 c3         1 RH1      -0.020900
     18 HC71        -0.3830     1.1580     3.2630 h1         1 RH1       0.066200
     19 HC72         1.2380     1.3110     4.2050 h1         1 RH1       0.066200
     20 HC81        -0.2120    -1.3000     3.3680 h1         1 RH1       0.066200
     21 HC82         1.4090    -1.1470     4.3100 h1         1 RH1       0.066200
     22 HC91         5.7880     0.9310    -3.1160 h1         1 RH1       0.080700
     23 HC92         5.7940    -0.9490    -3.1030 h1         1 RH1       0.080700
     24 H101         3.6520     0.9170    -4.3500 h1         1 RH1       0.080700
     25 H102         3.6580    -0.9640    -4.3370 h1         1 RH1       0.080700
     26 H111         4.6100    -0.9260     2.7010 h1         1 RH1       0.038200
     27 H112         4.7670     0.8330     2.6040 h1         1 RH1       0.038200
     28 HO3          3.6210     0.2690     4.4800 ho         1 RH1       0.389000
     29 H121         0.1060    -0.0110    -2.3340 hc         1 RH1       0.042033
     30 H122         1.4330     0.8710    -3.1020 hc         1 RH1       0.042033
     31 H123         1.4330    -0.8980    -3.0980 hc         1 RH1       0.042033
@<TRIPOS>BOND
     1     1     5 2
     2     2     8 2
     3     3     6 1
     4     3    11 1
     5     3    12 1
     6     4     9 1
     7     4    13 1
     8     4    14 1
     9     5     6 1
    10     5    10 1
    11     6     7 2
    12     7     8 1
    13     7    15 1
    14     8     9 1
    15     9    10 2
    16    10    17 1
    17    11    12 1
    18    11    18 1
    19    11    19 1
    20    12    20 1
    21    12    21 1
    22    13    14 1
    23    13    22 1
    24    13    23 1
    25    14    24 1
    26    14    25 1
    27    15    16 1
    28    15    26 1
    29    15    27 1
    30    16    28 1
    31    17    29 1
    32    17    30 1
    33    17    31 1
@<TRIPOS>SUBSTRUCTURE
     1 RH1         1 TEMP              0 ****  ****    0 ROOT
