@<TRIPOS>MOLECULE
molecule
   46    47     1     0     0
SMALL
bcc


@<TRIPOS>ATOM
      1 N01          0.0000     0.0000     0.0000 nz         1 RH2      -0.685400
      2 C02          1.3470     0.0000     0.0000 c          1 RH2       0.440100
      3 C03          2.1000     0.0000     1.3050 c3         1 RH2       0.088500
      4 C04          1.7300     1.2490     2.1080 c3         1 RH2      -0.078400
      5 C05          2.3980     1.1890     3.4840 c3         1 RH2      -0.064400
      6 C06          2.0280     2.4360     4.2850 c3         1 RH2      -0.114400
      7 C07          2.6960     2.3760     5.6610 c3         1 RH2       0.096800
      8 N08          2.3390     3.5750     6.4320 nz         1 RH2      -0.809600
      9 N09          3.5450     0.0010     1.0370 n7         1 RH2      -0.775200
     10 C10          4.0410    -1.3640     0.8220 c3         1 RH2       0.236100
     11 C11          5.5230    -1.3240     0.5510 cc         1 RH2      -0.110400
     12 C12          6.4780    -1.4040     1.4820 cc         1 RH2      -0.094000
     13 C13          7.7700    -1.3450     1.0010 cc         1 RH2      -0.177000
     14 C14          7.8670    -1.2150    -0.3370 cd         1 RH2       0.087900
     15 C15          9.1330    -1.1300    -1.0960 ca         1 RH2      -0.171300
     16 C16          9.1190    -0.9960    -2.4900 ca         1 RH2      -0.079000
     17 C17         10.3310    -0.9220    -3.1530 ca         1 RH2      -0.244300
     18 C18         11.5070    -0.9800    -2.4250 ca         1 RH2       0.446200
     19 N19         11.4890    -1.1060    -1.1130 nb         1 RH2      -0.675000
     20 C20         10.3610    -1.1770    -0.4350 ca         1 RH2       0.451200
     21 S21          6.2560    -1.1710    -1.0400 ss         1 RH2      -0.123800
     22 O22          1.9530     0.0010    -1.0500 o          1 RH2      -0.380100
     23 H1          -0.3340    -0.4790     0.8130 hn         1 RH2       0.479467
     24 H2          -0.3340     0.9440     0.0080 hn         1 RH2       0.479467
     25 H3           1.8390    -0.8850     1.8730 h1         1 RH2       0.104700
     26 H4           0.6550     1.2940     2.2300 hc         1 RH2       0.050700
     27 H5           2.0700     2.1320     1.5800 hc         1 RH2       0.050700
     28 H6           3.4730     1.1440     3.3610 hc         1 RH2       0.080700
     29 H7           2.0570     0.3060     4.0120 hc         1 RH2       0.080700
     30 H8           2.3680     3.3190     3.7580 hc         1 RH2       0.067200
     31 H9           0.9520     2.4810     4.4080 hc         1 RH2       0.067200
     32 H10          3.7710     2.3310     5.5390 hx         1 RH2       0.119200
     33 H11          2.3550     1.4930     6.1890 hx         1 RH2       0.119200
     34 H12          2.6530     4.3900     5.9440 hn         1 RH2       0.463467
     35 H13          1.3460     3.6150     6.5450 hn         1 RH2       0.463467
     36 H15          3.7330     0.5560     0.2260 hn         1 RH2       0.395800
     37 H17          3.5310    -1.8050    -0.0260 h1         1 RH2       0.051700
     38 H18          3.8530    -1.9610     1.7070 h1         1 RH2       0.051700
     39 H20          6.2550    -1.5080     2.5370 ha         1 RH2       0.143000
     40 H22          8.6370    -1.3990     1.6480 ha         1 RH2       0.167000
     41 H25          8.1840    -0.9530    -3.0340 ha         1 RH2       0.138000
     42 H26         10.3600    -0.8180    -4.2310 ha         1 RH2       0.153000
     43 H27         12.4570    -0.9240    -2.9420 h4         1 RH2       0.040100
     44 H28         10.3870    -1.2800     0.6430 h4         1 RH2       0.027100
     45 H013        -0.3340    -0.5390    -0.7740 hn         1 RH2       0.479467
     46 H083         2.7850     3.5410     7.3270 hn         1 RH2       0.463467
@<TRIPOS>BOND
     1     8     7 1
     2     7     6 1
     3     6     5 1
     4     5     4 1
     5     4     3 1
     6    22     2 2
     7     3     2 1
     8     3     9 1
     9    12    13 1
    10    12    11 2
    11     2     1 1
    12    13    14 2
    13     9    10 1
    14    11    10 1
    15    11    21 1
    16    14    15 1
    17    14    21 1
    18    20    15 ar
    19    20    19 ar
    20    15    16 ar
    21    19    18 ar
    22    16    17 ar
    23    18    17 ar
    24     1    23 1
    25     1    24 1
    26     3    25 1
    27     4    26 1
    28     4    27 1
    29     5    28 1
    30     5    29 1
    31     6    30 1
    32     6    31 1
    33     7    32 1
    34     7    33 1
    35     8    34 1
    36     8    35 1
    37     9    36 1
    38    10    37 1
    39    10    38 1
    40    12    39 1
    41    13    40 1
    42    16    41 1
    43    17    42 1
    44    18    43 1
    45    20    44 1
    46    45     1 1
    47    46     8 1
@<TRIPOS>SUBSTRUCTURE
     1 RH2         1 TEMP              0 ****  ****    0 ROOT
