@<TRIPOS>MOLECULE
RH2
   46    47     1     0     0
SMALL
bcc


@<TRIPOS>ATOM
      1 N01          0.0000     0.0000     0.0000 nz         1 RH2       0.197600
      2 C02          1.3470     0.0000     0.0000 c          1 RH2       0.272100
      3 C03          2.1000     0.0000     1.3050 c3         1 RH2       0.047500
      4 C04          1.7300     1.2490     2.1080 c3         1 RH2      -0.017400
      5 C05          2.3980     1.1890     3.4840 c3         1 RH2      -0.010400
      6 C06          2.0280     2.4360     4.2850 c3         1 RH2      -0.035400
      7 C07          2.6960     2.3760     5.6610 c3         1 RH2      -0.048200
      8 N08          2.3390     3.5750     6.4320 nz         1 RH2       0.091400
      9 N09          3.5450     0.0010     1.0370 n7         1 RH2      -0.550200
     10 C10          4.0410    -1.3640     0.8220 c3         1 RH2       0.252100
     11 C11          5.5230    -1.3240     0.5510 cc         1 RH2      -0.083400
     12 C12          6.4780    -1.4040     1.4820 cd         1 RH2      -0.056000
     13 C13          7.7700    -1.3450     1.0010 cd         1 RH2      -0.159000
     14 C14          7.8670    -1.2150    -0.3370 cc         1 RH2       0.155900
     15 C15          9.1330    -1.1300    -1.0960 ca         1 RH2      -0.168300
     16 C16          9.1190    -0.9960    -2.4900 ca         1 RH2      -0.053000
     17 C17         10.3310    -0.9220    -3.1530 ca         1 RH2      -0.211300
     18 C18         11.5070    -0.9800    -2.4250 ca         1 RH2       0.435200
     19 N19         11.4890    -1.1060    -1.1130 nb         1 RH2      -0.567000
     20 C20         10.3610    -1.1770    -0.4350 ca         1 RH2       0.431200
     21 S21          6.2560    -1.1710    -1.0400 ss         1 RH2      -0.243800
     22 O22          1.9530     0.0010    -1.0500 o          1 RH2      -0.372100
     23 H1          -0.3340    -0.4790     0.8130 hn         1 RH2       0.249800
     24 H2          -0.3340     0.9440     0.0080 hn         1 RH2       0.249800
     25 H3           1.8390    -0.8850     1.8730 h1         1 RH2       0.074700
     26 H4           0.6550     1.2940     2.2300 hc         1 RH2       0.017700
     27 H5           2.0700     2.1320     1.5800 hc         1 RH2       0.017700
     28 H6           3.4730     1.1440     3.3610 hc         1 RH2       0.047200
     29 H7           2.0570     0.3060     4.0120 hc         1 RH2       0.047200
     30 H8           2.3680     3.3190     3.7580 hc         1 RH2       0.034200
     31 H9           0.9520     2.4810     4.4080 hc         1 RH2       0.034200
     32 H10          3.7710     2.3310     5.5390 hx         1 RH2       0.090700
     33 H11          2.3550     1.4930     6.1890 hx         1 RH2       0.090700
     34 H12          2.6530     4.3900     5.9440 hn         1 RH2       0.228467
     35 H13          1.3460     3.6150     6.5450 hn         1 RH2       0.228467
     36 H15          3.7330     0.5560     0.2260 hn         1 RH2       0.296800
     37 H17          3.5310    -1.8050    -0.0260 h1         1 RH2       0.017700
     38 H18          3.8530    -1.9610     1.7070 h1         1 RH2       0.017700
     39 H20          6.2550    -1.5080     2.5370 ha         1 RH2       0.113000
     40 H22          8.6370    -1.3990     1.6480 ha         1 RH2       0.142000
     41 H25          8.1840    -0.9530    -3.0340 ha         1 RH2       0.115000
     42 H26         10.3600    -0.8180    -4.2310 ha         1 RH2       0.124000
     43 H27         12.4570    -0.9240    -2.9420 h4         1 RH2      -0.007900
     44 H28         10.3870    -1.2800     0.6430 h4         1 RH2      -0.015900
     45 H013        -0.3340    -0.5390    -0.7740 hn         1 RH2       0.249800
     46 H083         2.7850     3.5410     7.3270 hn         1 RH2       0.228467
@<TRIPOS>BOND
     1     1     2 1   
     2     1    23 1   
     3     1    24 1   
     4     1    45 1   
     5     2     3 1   
     6     2    22 2   
     7     3     4 1   
     8     3     9 1   
     9     3    25 1   
    10     4     5 1   
    11     4    26 1   
    12     4    27 1   
    13     5     6 1   
    14     5    28 1   
    15     5    29 1   
    16     6     7 1   
    17     6    30 1   
    18     6    31 1   
    19     7     8 1   
    20     7    32 1   
    21     7    33 1   
    22     8    34 1   
    23     8    35 1   
    24     8    46 1   
    25     9    10 1   
    26     9    36 1   
    27    10    11 1   
    28    10    37 1   
    29    10    38 1   
    30    11    12 2   
    31    11    21 1   
    32    12    13 1   
    33    12    39 1   
    34    13    14 2   
    35    13    40 1   
    36    14    15 1   
    37    14    21 1   
    38    15    16 ar  
    39    15    20 ar  
    40    16    17 ar  
    41    16    41 1   
    42    17    18 ar  
    43    17    42 1   
    44    18    19 ar  
    45    18    43 1   
    46    19    20 ar  
    47    20    44 1   
@<TRIPOS>SUBSTRUCTURE
     1 RH2         1 TEMP              0 ****  ****    0 ROOT
