@<TRIPOS>MOLECULE
molecule
   63    66     1     0     0
SMALL
bcc


@<TRIPOS>ATOM
      1 O2           0.0000     0.0000     0.0000 o          1 RHB      -0.796300
      2 C26          1.3480     0.0000     0.0000 c          1 RHB       0.846600
      3 C19          2.0850     0.0000     1.2790 cc         1 RHB      -0.050000
      4 C14          3.4960     0.0010     1.2840 cc         1 RHB      -0.129000
      5 C15          4.1790     0.0000     2.5010 cc         1 RHB      -0.128000
      6 C16          3.4730    -0.0000     3.6880 cd         1 RHB      -0.145000
      7 C17          2.0890    -0.0000     3.6810 cd         1 RHB      -0.125000
      8 C18          1.3930     0.0050     2.4870 cc         1 RHB      -0.089000
      9 C9           4.2440    -0.0000     0.0130 cd         1 RHB       0.313000
     10 C8           4.3520     1.2150    -0.8020 ca         1 RHB      -0.265300
     11 C13          3.7430     2.4050    -0.3840 ca         1 RHB       0.032000
     12 C12          3.8510     3.5290    -1.1490 ca         1 RHB      -0.243500
     13 C11          4.5650     3.4990    -2.3490 ca         1 RHB       0.292100
     14 N1           4.6670     4.6510    -3.1200 nh         1 RHB      -0.677000
     15 C35          5.4150     4.6260    -4.3790 c3         1 RHB       0.215550
     16 C36          4.4720     4.2500    -5.5240 c3         1 RHB      -0.119600
     17 C22          4.0250     5.8910    -2.6730 c3         1 RHB       0.215550
     18 C23          5.0060     6.6890    -1.8110 c3         1 RHB      -0.119600
     19 C10          5.1740     2.3280    -2.7770 ca         1 RHB      -0.349800
     20 C7           5.0750     1.1750    -2.0120 ca         1 RHB       0.466500
     21 O1           5.6690     0.0380    -2.4300 os         1 RHB      -0.362800
     22 C1           5.6040    -1.1120    -1.7250 ca         1 RHB       0.508700
     23 C2           4.8810    -1.1640    -0.4550 ca         1 RHB      -0.265300
     24 C6           6.2220    -2.2350    -2.1920 ca         1 RHB      -0.392000
     25 C5           6.1540    -3.4350    -1.4530 ca         1 RHB       0.292100
     26 C4           5.4230    -3.4790    -0.1880 ca         1 RHB      -0.243500
     27 C3           4.8200    -2.3640     0.2840 ca         1 RHB       0.032000
     28 N2           6.7550    -4.5270    -1.9090 nh         1 RHB      -0.677000
     29 C24          7.3410    -4.5350    -3.2510 c3         1 RHB       0.215550
     30 C25          8.8610    -4.6720    -3.1430 c3         1 RHB      -0.119600
     31 C33          6.8320    -5.7250    -1.0690 c3         1 RHB       0.215550
     32 C34          6.0030    -6.8460    -1.7000 c3         1 RHB      -0.119600
     33 O3           1.9550     0.0010    -1.0520 o          1 RHB      -0.796300
     34 H1           5.2620     0.0000     2.5140 ha         1 RHB       0.122000
     35 H2           4.0070    -0.0030     4.6310 ha         1 RHB       0.127000
     36 H3           1.5470     0.0010     4.6190 ha         1 RHB       0.130000
     37 H4           0.3100     0.0050     2.4910 ha         1 RHB       0.176000
     38 H5           3.1890     2.4330     0.5460 ha         1 RHB       0.166500
     39 H6           3.3800     4.4490    -0.8250 ha         1 RHB       0.150000
     40 H7           6.2110     3.8940    -4.3120 h1         1 RHB       0.061825
     41 H8           5.8390     5.6040    -4.5670 h1         1 RHB       0.061825
     42 H9           4.2490     5.1320    -6.1130 hc         1 RHB       0.047700
     43 H10          4.9470     3.5070    -6.1540 hc         1 RHB       0.047700
     44 H11          3.5530     3.8450    -5.1180 hc         1 RHB       0.047700
     45 H12          3.7400     6.4810    -3.5360 h1         1 RHB       0.061825
     46 H13          3.1440     5.6520    -2.0910 h1         1 RHB       0.061825
     47 H14          5.8320     6.0520    -1.5190 hc         1 RHB       0.047700
     48 H15          5.3820     7.5320    -2.3780 hc         1 RHB       0.047700
     49 H16          4.4970     7.0490    -0.9250 hc         1 RHB       0.047700
     50 H17          5.7260     2.3130    -3.7100 ha         1 RHB       0.157000
     51 H18          6.7650    -2.2060    -3.1300 ha         1 RHB       0.157000
     52 H19          5.3730    -4.4020     0.3770 ha         1 RHB       0.150000
     53 H20          6.9420    -5.3700    -3.8140 h1         1 RHB       0.061825
     54 H21          7.0970    -3.6090    -3.7570 h1         1 RHB       0.061825
     55 H22          9.1280    -5.7220    -3.1180 hc         1 RHB       0.047700
     56 H23          9.3280    -4.2020    -4.0000 hc         1 RHB       0.047700
     57 H24          9.2040    -4.1910    -2.2360 hc         1 RHB       0.047700
     58 H25          7.8650    -6.0420    -0.9860 h1         1 RHB       0.061825
     59 H26          6.4440    -5.5010    -0.0830 h1         1 RHB       0.061825
     60 H27          5.6440    -7.5100    -0.9240 hc         1 RHB       0.047700
     61 H28          5.1600    -6.4180    -2.2280 hc         1 RHB       0.047700
     62 H29          6.6200    -7.4030    -2.3960 hc         1 RHB       0.047700
     63 H31          4.2790    -2.3970     1.2220 ha         1 RHB       0.166500
@<TRIPOS>BOND
     1     2    33 1
     2     2     1 1
     3     3     2 2
     4     4     3 1
     5     4     9 2
     6     5     4 1
     7     5    34 1
     8     6     7 1
     9     6     5 2
    10     6    35 1
    11     7     8 2
    12     7    36 1
    13     8     3 1
    14     8    37 1
    15     9    23 1
    16    10     9 1
    17    10    20 ar
    18    11    10 ar
    19    11    38 1
    20    12    11 ar
    21    12    13 ar
    22    12    39 1
    23    13    19 ar
    24    14    13 1
    25    14    17 1
    26    15    14 1
    27    15    40 1
    28    15    41 1
    29    16    15 1
    30    16    42 1
    31    16    43 1
    32    16    44 1
    33    17    18 1
    34    17    45 1
    35    17    46 1
    36    18    47 1
    37    18    48 1
    38    18    49 1
    39    19    20 ar
    40    19    50 1
    41    20    21 1
    42    21    22 1
    43    22    24 1
    44    23    27 1
    45    23    22 ar
    46    24    25 2
    47    24    51 1
    48    25    28 1
    49    26    25 1
    50    26    52 1
    51    27    26 2
    52    27    63 1
    53    28    31 1
    54    28    29 1
    55    29    30 1
    56    29    53 1
    57    29    54 1
    58    30    55 1
    59    30    56 1
    60    30    57 1
    61    31    32 1
    62    31    58 1
    63    31    59 1
    64    32    60 1
    65    32    61 1
    66    32    62 1
@<TRIPOS>SUBSTRUCTURE
     1 RHB         1 TEMP              0 ****  ****    0 ROOT
