@<TRIPOS>MOLECULE
RHC
   34    34     1     0     0
SMALL
bcc


@<TRIPOS>ATOM
      1 C1           0.0000     0.0000     0.0000 c3         1 RHC       0.379900
      2 O1          -0.5070     0.5510    -1.2160 oh         1 RHC      -0.572800
      3 C2           1.5490     0.0000     0.0000 c3         1 RHC       0.134100
      4 O2           2.0580    -1.1760    -0.6310 oh         1 RHC      -0.553800
      5 C3           1.8740     0.0000     1.5160 c3         1 RHC       0.136100
      6 O3           2.1610    -1.3250     1.9660 oh         1 RHC      -0.550800
      7 C4           0.5880     0.5360     2.1740 c3         1 RHC       0.182100
      8 O4          -0.3380     0.8470     1.1210 os         1 RHC      -0.398600
      9 CE           0.9020     1.7970     2.9810 c3         1 RHC       0.068700
     10 N            0.4710     5.3870     7.0420 nz         1 RHC       0.083400
     11 CA          -0.5490     5.8100     6.0750 c3         1 RHC      -0.205500
     12 CB          -1.1010     4.5850     5.3460 c3         1 RHC      -0.001400
     13 CG           0.0340     3.8750     4.6080 c3         1 RHC       0.041700
     14 SD          -0.6190     2.4220     3.7430 ss         1 RHC      -0.330200
     15 C           -1.6690     6.5100     6.8020 c          1 RHC       0.953600
     16 O           -2.3720     7.4730     6.1850 o          1 RHC      -0.813300
     17 OXT         -1.9350     6.2040     7.9400 o          1 RHC      -0.813300
     18 HC11        -0.3780    -1.0030     0.1570 h2         1 RHC       0.019700
     19 HO11        -1.2880     0.0870    -1.4700 ho         1 RHC       0.403000
     20 HC21         1.9320     0.8960    -0.4740 h1         1 RHC       0.027700
     21 HO21         2.5930    -0.9310    -1.3680 ho         1 RHC       0.390000
     22 HC31         2.7060     0.6630     1.7220 h1         1 RHC       0.007700
     23 HO31         3.0200    -1.3470     2.3540 ho         1 RHC       0.389000
     24 HC41         0.1650    -0.2240     2.8200 h1         1 RHC       0.050700
     25 HCE1         1.3130     2.5530     2.3230 h1         1 RHC       0.036700
     26 HCE2         1.6230     1.5610     3.7540 h1         1 RHC       0.036700
     27 HCA1        -0.1060     6.4890     5.3560 hx         1 RHC       0.088700
     28 HCB1        -1.5440     3.9060     6.0640 hc         1 RHC       0.068700
     29 HCB2        -1.8550     4.8980     4.6330 hc         1 RHC       0.068700
     30 HCG1         0.7880     3.5620     5.3210 h1         1 RHC       0.019200
     31 HCG2         0.4780     4.5540     3.8890 h1         1 RHC       0.019200
     32 HN2          1.3320     5.2110     6.5630 hn         1 RHC       0.210133
     33 H2           0.1690     4.5510     7.5020 hn         1 RHC       0.210133
     34 HN1          0.6090     6.1090     7.7210 hn         1 RHC       0.210133
@<TRIPOS>BOND
     1     1     2 1   
     2     1     3 1   
     3     1     8 1   
     4     1    18 1   
     5     2    19 1   
     6     3     4 1   
     7     3     5 1   
     8     3    20 1   
     9     4    21 1   
    10     5     6 1   
    11     5     7 1   
    12     5    22 1   
    13     6    23 1   
    14     7     8 1   
    15     7     9 1   
    16     7    24 1   
    17     9    14 1   
    18     9    25 1   
    19     9    26 1   
    20    10    11 1   
    21    10    32 1   
    22    10    33 1   
    23    10    34 1   
    24    11    12 1   
    25    11    15 1   
    26    11    27 1   
    27    12    13 1   
    28    12    28 1   
    29    12    29 1   
    30    13    14 1   
    31    13    30 1   
    32    13    31 1   
    33    15    16 1   
    34    15    17 1   
@<TRIPOS>SUBSTRUCTURE
     1 RHC         1 TEMP              0 ****  ****    0 ROOT
