@<TRIPOS>MOLECULE
RHN
   28    30     1     0     0
SMALL
bcc


@<TRIPOS>ATOM
      1 OAA        -0.0680   -0.1420    0.0750 o         1 RHN     -0.814300
      2 OAB         0.0780    1.1350    4.9940 o         1 RHN     -0.532100
      3 OAC         5.2980    1.1370    5.0120 o         1 RHN     -0.505100
      4 OAD         1.8660   -0.3500   -1.0340 o         1 RHN     -0.814300
      5 OAE         5.4180   -0.0210    7.3860 oh        1 RHN     -0.464100
      6 OAF         5.4430    0.1400    2.5350 oh        1 RHN     -0.489100
      7 CAG         1.9300   -0.1380    8.5620 ca        1 RHN     -0.095000
      8 CAH         3.3180   -0.2110    8.5850 ca        1 RHN     -0.219000
      9 CAI         1.2640    0.1840    7.3810 ca        1 RHN     -0.132000
     10 CAJ         3.3500    0.0080    1.3140 ca        1 RHN     -0.178000
     11 CAK         1.2850    0.3250    2.5180 ca        1 RHN     -0.075000
     12 CAL         1.1900   -0.1580    0.0150 c         1 RHN      0.909200
     13 CAM         1.9650    0.0660    1.3140 ca        1 RHN     -0.082600
     14 CAN         4.0460    0.0530    7.4120 ca        1 RHN      0.153100
     15 CAO         4.0680    0.2090    2.5100 ca        1 RHN      0.146100
     16 CAP         1.2520    0.7390    4.9550 c         1 RHN      0.588300
     17 CAQ         4.1440    0.6950    4.9690 c         1 RHN      0.602300
     18 CAR         1.9880    0.4350    6.2120 ca        1 RHN     -0.094600
     19 CAS         1.9900    0.5070    3.7030 ca        1 RHN     -0.142600
     20 CAT         3.3890    0.3870    6.2110 ca        1 RHN     -0.143600
     21 CAU         3.4040    0.4610    3.7200 ca        1 RHN     -0.190600
     22 HOAE        5.7190   -0.2370    8.2810 ho        1 RHN      0.407000
     23 HOAF        5.7410   -0.0010    1.6230 ho        1 RHN      0.414000
     24 HAG         1.3570   -0.3380    9.4790 ha        1 RHN      0.128000
     25 HAH         3.8480   -0.4710    9.5120 ha        1 RHN      0.127000
     26 HAI         0.1640    0.2470    7.3530 ha        1 RHN      0.155000
     27 HAJ         3.8720   -0.1940    0.3640 ha        1 RHN      0.164000
     28 HAK         0.1820    0.3760    2.4970 ha        1 RHN      0.178000
@<TRIPOS>BOND
     1    1   12 1   
     2    2   16 2   
     3    3   17 2   
     4    4   12 1   
     5    5   14 1   
     6    5   22 1   
     7    6   15 1   
     8    6   23 1   
     9    7    8 ar  
    10    7    9 ar  
    11    7   24 1   
    12    8   14 ar  
    13    8   25 1   
    14    9   18 ar  
    15    9   26 1   
    16   10   13 ar  
    17   10   15 ar  
    18   10   27 1   
    19   11   13 ar  
    20   11   19 ar  
    21   11   28 1   
    22   12   13 1   
    23   14   20 ar  
    24   15   21 ar  
    25   16   18 1   
    26   16   19 1   
    27   17   20 1   
    28   17   21 1   
    29   18   20 ar  
    30   19   21 ar  
@<TRIPOS>SUBSTRUCTURE
     1 RHN         1 TEMP              0 ****  ****    0 ROOT
