@<TRIPOS>MOLECULE
molecule
   28    30     1     0     0
SMALL
bcc


@<TRIPOS>ATOM
      1 OAA          0.0000     0.0000     0.0000 o          1 RHN      -0.823300
      2 OAB          0.0290     0.7560     4.9600 o          1 RHN      -0.524100
      3 OAC          5.2790     0.7330     4.9450 o          1 RHN      -0.498100
      4 OAD          1.8880    -0.1010    -1.1620 o          1 RHN      -0.823300
      5 OAE          5.4130     0.1500     7.4260 oh         1 RHN      -0.465100
      6 OAF          5.4040     0.2130     2.4590 oh         1 RHN      -0.493100
      7 CAG          1.9710     0.0060     8.6070 ca         1 RHN      -0.096000
      8 CAH          3.3500     0.0000     8.6080 ca         1 RHN      -0.217000
      9 CAI          1.2670     0.1680     7.4220 ca         1 RHN      -0.125000
     10 CAJ          3.3480     0.1100     1.2740 ca         1 RHN      -0.155000
     11 CAK          1.2530     0.2400     2.4790 ca         1 RHN      -0.077000
     12 CAL          1.2150     0.0000     0.0000 c          1 RHN       0.877200
     13 CAM          1.9550     0.1110     1.2770 ca         1 RHN      -0.064600
     14 CAN          4.0570     0.1570     7.4190 ca         1 RHN       0.163100
     15 CAO          4.0470     0.2130     2.4650 ca         1 RHN       0.141100
     16 CAP          1.2180     0.5040     4.9530 c          1 RHN       0.592300
     17 CAQ          4.0890     0.4860     4.9450 c          1 RHN       0.589300
     18 CAR          1.9540     0.3310     6.2250 ca         1 RHN      -0.093600
     19 CAS          1.9470     0.3680     3.6740 ca         1 RHN      -0.143600
     20 CAT          3.3620     0.3200     6.2190 ca         1 RHN      -0.148600
     21 CAU          3.3540     0.3490     3.6700 ca         1 RHN      -0.186600
     22 HOAE         5.7240     0.4270     8.2720 ho         1 RHN       0.411000
     23 HOAF         5.7150     0.6390     1.6770 ho         1 RHN       0.415000
     24 HAG          1.4320    -0.1170     9.5390 ha         1 RHN       0.126000
     25 HAH          3.8870    -0.1270     9.5400 ha         1 RHN       0.125000
     26 HAI          0.1840     0.1710     7.4310 ha         1 RHN       0.152000
     27 HAJ          3.9080     0.1420     0.3470 ha         1 RHN       0.162000
     28 HAK          0.1710     0.2310     2.4220 ha         1 RHN       0.176000
@<TRIPOS>BOND
     1     1    12 1
     2    16     2 2
     3     3    17 2
     4    12     4 1
     5     5    14 1
     6     5    22 1
     7     6    15 1
     8     6    23 1
     9     8     7 ar
    10     7     9 ar
    11     7    24 1
    12    14     8 ar
    13     8    25 1
    14    18     9 ar
    15     9    26 1
    16    15    10 ar
    17    10    13 ar
    18    10    27 1
    19    19    11 ar
    20    13    11 ar
    21    11    28 1
    22    13    12 1
    23    14    20 ar
    24    15    21 ar
    25    18    16 1
    26    19    16 1
    27    17    20 1
    28    17    21 1
    29    20    18 ar
    30    21    19 ar
@<TRIPOS>SUBSTRUCTURE
     1 RHN         1 TEMP              0 ****  ****    0 ROOT
