@<TRIPOS>MOLECULE
molecule
   60    64     1     0     0
SMALL
bcc


@<TRIPOS>ATOM
      1 C            0.0000     0.0000     0.0000 ca         1 RHO       0.212600
      2 C1           1.4240     0.0000     0.0000 ca         1 RHO      -0.272300
      3 C2           2.1600     0.0000     1.2060 ca         1 RHO       0.368000
      4 C3           1.5330    -0.0060     2.5070 ca         1 RHO      -0.143300
      5 C4           0.0940    -0.0170     2.4890 ca         1 RHO      -0.036000
      6 C5          -0.6490    -0.0100     1.2780 ca         1 RHO      -0.203000
      7 N           -0.7650     0.0190    -1.3090 nh         1 RHO      -0.749000
      8 C6          -0.1500     0.0280    -2.5510 c3         1 RHO       0.235100
      9 C7          -2.1510     0.0400    -1.3890 c3         1 RHO       0.235100
     10 OH1          3.5470     0.0280     1.0470 os         1 RHO      -0.420800
     11 C8           2.4200     0.0090     3.6540 cc         1 RHO       0.047000
     12 C9           4.3910     0.0410     2.1570 cd         1 RHO       0.304700
     13 C10          5.7810     0.0960     1.8840 ce         1 RHO      -0.222000
     14 C11          6.7490     0.1200     2.9400 ce         1 RHO       0.177000
     15 C12          6.2350     0.0560     4.2800 c2         1 RHO      -0.264200
     16 C13          4.8420     0.0110     4.5350 c3         1 RHO       0.013100
     17 C14          3.8620     0.0120     3.4870 cd         1 RHO      -0.140600
     18 N1           8.1280     0.2160     2.6780 nh         1 RHO      -0.712400
     19 C15          8.6750     0.4470     1.4180 c3         1 RHO       0.228100
     20 C16          9.0850     0.2220     3.6890 c3         1 RHO       0.228100
     21 C17          1.7590     0.4060     5.0020 ca         1 RHO      -0.049000
     22 C18          1.7320    -0.6490     5.9960 ca         1 RHO      -0.066600
     23 C19          1.2180    -0.3360     7.2900 ca         1 RHO      -0.113000
     24 C20          0.7120     0.9530     7.6800 ca         1 RHO      -0.012400
     25 C21          0.7370     1.9630     6.6560 ca         1 RHO      -0.156000
     26 C22          1.2440     1.6960     5.3580 ca         1 RHO      -0.120000
     27 C23          2.2240    -2.0920     5.8690 c          1 RHO       0.901200
     28 OH2          3.1240    -2.5810     6.5880 o          1 RHO      -0.809300
     29 OH3          1.7300    -2.7960     4.9650 o          1 RHO      -0.809300
     30 N2           0.2050     1.2650     9.0170 n          1 RHO      -0.394600
     31 C24         -0.3590     0.3330     9.7970 c          1 RHO       0.708700
     32 OH4         -0.5570    -0.8510     9.5910 o          1 RHO      -0.547000
     33 C25         -0.7010     1.0140    10.9780 cc         1 RHO      -0.205200
     34 C26         -0.3210     2.3310    10.8450 cd         1 RHO      -0.205200
     35 C27          0.2680     2.4850     9.5720 c          1 RHO       0.708700
     36 OH5          0.7170     3.5260     9.1270 o          1 RHO      -0.547000
     37 HC1          1.9540     0.0070    -0.9450 ha         1 RHO       0.139000
     38 HC4         -0.4400    -0.0240     3.4320 ha         1 RHO       0.155000
     39 HC5         -1.7320    -0.0100     1.3220 ha         1 RHO       0.129000
     40 HC61         0.6140    -0.7390    -2.5810 h1         1 RHO       0.020367
     41 HC62         0.3050     0.9970    -2.7220 h1         1 RHO       0.020367
     42 HC63        -0.8870    -0.1650    -3.3210 h1         1 RHO       0.020367
     43 HC71        -2.5370    -0.9580    -1.2190 h1         1 RHO       0.020367
     44 HC72        -2.5460     0.7130    -0.6390 h1         1 RHO       0.020367
     45 HC73        -2.4510     0.3800    -2.3730 h1         1 RHO       0.020367
     46 H10C         6.1170     0.1410     0.8550 ha         1 RHO       0.130000
     47 H12C         6.9260     0.0710     5.1150 ha         1 RHO       0.127000
     48 H131         4.6170     0.8610     5.1670 hc         1 RHO       0.084700
     49 H132         4.6650    -0.8840     5.1200 hc         1 RHO       0.084700
     50 H151         8.5750    -0.4460     0.8120 h1         1 RHO       0.021700
     51 H152         9.7240     0.6970     1.5200 h1         1 RHO       0.021700
     52 H153         8.1530     1.2680     0.9420 h1         1 RHO       0.021700
     53 H161         9.1160     1.2020     4.1500 h1         1 RHO       0.021700
     54 H162        10.0560    -0.0100     3.2690 h1         1 RHO       0.021700
     55 H163         8.8270    -0.5200     4.4350 h1         1 RHO       0.021700
     56 H19C         1.2080    -1.1260     8.0320 ha         1 RHO       0.158000
     57 H21C         0.3640     2.9540     6.8840 ha         1 RHO       0.131000
     58 H22C         1.2430     2.4870     4.6180 ha         1 RHO       0.124000
     59 H25C        -1.6170     0.7650    11.5020 ha         1 RHO       0.159500
     60 H26C        -0.9430     3.1180    11.2540 ha         1 RHO       0.159500
@<TRIPOS>BOND
     1     1     2 ar
     2     1     6 ar
     3     1     7 1
     4     2     3 ar
     5     2    37 1
     6     3     4 ar
     7     3    10 1
     8     4     5 ar
     9     4    11 1
    10     5     6 ar
    11     5    38 1
    12     6    39 1
    13     7     8 1
    14     7     9 1
    15     8    40 1
    16     8    41 1
    17     8    42 1
    18     9    43 1
    19     9    44 1
    20     9    45 1
    21    10    12 1
    22    11    17 2
    23    11    21 1
    24    12    13 2
    25    12    17 1
    26    13    14 1
    27    13    46 1
    28    14    15 2
    29    14    18 1
    30    15    16 1
    31    15    47 1
    32    16    17 1
    33    16    48 1
    34    16    49 1
    35    18    19 1
    36    18    20 1
    37    19    50 1
    38    19    51 1
    39    19    52 1
    40    20    53 1
    41    20    54 1
    42    20    55 1
    43    21    22 ar
    44    21    26 ar
    45    22    23 ar
    46    22    27 1
    47    23    24 ar
    48    23    56 1
    49    24    25 ar
    50    24    30 1
    51    25    26 ar
    52    25    57 1
    53    26    58 1
    54    27    28 1
    55    27    29 1
    56    30    31 1
    57    30    35 1
    58    31    32 2
    59    31    33 1
    60    33    34 2
    61    33    59 1
    62    34    35 1
    63    34    60 1
    64    35    36 2
@<TRIPOS>SUBSTRUCTURE
     1 RHO         1 TEMP              0 ****  ****    0 ROOT
