@<TRIPOS>MOLECULE
molecule
   27    28     1     0     0
SMALL
bcc


@<TRIPOS>ATOM
      1 C13         -0.8690    -0.0120    -2.4980 c1         1 RHP      -0.141500
      2 C12         -0.4920    -0.0000    -1.3870 c1         1 RHP      -0.147100
      3 C11          0.0000     0.0000     0.0000 c3         1 RHP       0.229900
      4 N10          1.4670     0.0000     0.0000 n7         1 RHP      -0.781200
      5 C9           1.8910     0.0000     1.4070 c3         1 RHP       0.197800
      6 C1           3.2460     0.7230     1.5580 c3         1 RHP      -0.087400
      7 C2           4.2550    -0.4380     1.4430 c3         1 RHP      -0.030100
      8 C3           3.5000    -1.6660     1.9030 ca         1 RHP      -0.087300
      9 C8           2.1420    -1.4150     1.8820 ca         1 RHP      -0.066300
     10 C7           1.2510    -2.4030     2.2600 ca         1 RHP      -0.132000
     11 C4           3.9670    -2.9060     2.3090 ca         1 RHP      -0.105000
     12 C5           3.0820    -3.8910     2.6920 ca         1 RHP      -0.145000
     13 C6           1.7180    -3.6420     2.6720 ca         1 RHP       0.100100
     14 O6           0.8410    -4.6100     3.0480 oh         1 RHP      -0.520100
     15 H13         -0.8180    -0.3770    -3.5170 ha         1 RHP       0.167500
     16 H111        -0.3610     0.8850     0.5110 h1         1 RHP       0.050200
     17 H112        -0.3610    -0.8840     0.5110 h1         1 RHP       0.050200
     18 H10          1.8010     0.8300    -0.4490 hn         1 RHP       0.358800
     19 H9           1.1430     0.4760     2.0300 h1         1 RHP       0.037700
     20 H11          3.3880     1.4210     0.7420 hc         1 RHP       0.055200
     21 H12          3.3150     1.1810     2.5370 hc         1 RHP       0.055200
     22 H21          4.5520    -0.5600     0.4090 hc         1 RHP       0.058700
     23 H22          5.0930    -0.2570     2.1060 hc         1 RHP       0.058700
     24 H7           0.1860    -2.2060     2.2430 ha         1 RHP       0.135000
     25 H4           5.0320    -3.1020     2.3250 ha         1 RHP       0.132000
     26 H5           3.4520    -4.8580     3.0130 ha         1 RHP       0.141000
     27 HO6          0.6460    -4.5170     3.9660 ho         1 RHP       0.416000
@<TRIPOS>BOND
     1     1     2 3
     2     1    15 1
     3     2     3 1
     4     3     4 1
     5     3    16 1
     6     3    17 1
     7     4     5 1
     8     4    18 1
     9     5     6 1
    10     5     9 1
    11     5    19 1
    12     6     7 1
    13     6    20 1
    14     6    21 1
    15     7     8 1
    16     7    22 1
    17     7    23 1
    18     8     9 ar
    19     8    11 ar
    20     9    10 ar
    21    10    13 ar
    22    10    24 1
    23    11    12 ar
    24    11    25 1
    25    12    13 ar
    26    12    26 1
    27    13    14 1
    28    14    27 1
@<TRIPOS>SUBSTRUCTURE
     1 RHP         1 TEMP              0 ****  ****    0 ROOT
