@<TRIPOS>MOLECULE
molecule
   44    43     1     0     0
SMALL
bcc


@<TRIPOS>ATOM
      1 N'           0.0000     0.0000     0.0000 nz         1 RHS      -0.683400
      2 C'           1.3470     0.0000     0.0000 c          1 RHS       0.489100
      3 O'           1.9530    -0.0010    -1.0510 o          1 RHS      -0.408100
      4 C2'          2.1020     0.0000     1.3040 c3         1 RHS      -0.125700
      5 CT1          2.3960    -1.4420     1.7230 c3         1 RHS      -0.068000
      6 CT2          3.2730    -1.4390     2.9760 c3         1 RHS      -0.095767
      7 CT3          1.0820    -2.1640     2.0230 c3         1 RHS      -0.095767
      8 CT4          3.1270    -2.1620     0.5890 c3         1 RHS      -0.095767
      9 C1'          3.4190     0.7600     1.1320 c3         1 RHS      -0.154400
     10 C            3.9440     1.1650     2.4840 c          1 RHS       0.663100
     11 O            3.2100     1.1530     3.4480 o          1 RHS      -0.623100
     12 N            5.2310     1.5410     2.6220 ns         1 RHS      -0.557900
     13 C3           5.7430     1.9360     3.9360 c3         1 RHS       0.109700
     14 C4           7.2310     1.5980     4.0270 c3         1 RHS      -0.098900
     15 C5           7.4250     0.0920     3.8340 c3         1 RHS      -0.091100
     16 C2           5.5490     3.4420     4.1270 c3         1 RHS      -0.098900
     17 C1           4.0600     3.7800     4.0370 c3         1 RHS      -0.091100
     18 HN'1        -0.3340    -0.8840    -0.3300 hn         1 RHS       0.477800
     19 HN'2        -0.3340     0.7280    -0.6010 hn         1 RHS       0.477800
     20 H2'          1.5040     0.4830     2.0670 hc         1 RHS       0.104700
     21 HT21         2.8200    -0.8110     3.7330 hc         1 RHS       0.052144
     22 HT22         4.2560    -1.0550     2.7280 hc         1 RHS       0.052144
     23 HT23         3.3660    -2.4500     3.3530 hc         1 RHS       0.052144
     24 HT31         1.2840    -3.0580     2.6000 hc         1 RHS       0.052144
     25 HT32         0.4300    -1.5090     2.5890 hc         1 RHS       0.052144
     26 HT33         0.5990    -2.4370     1.0920 hc         1 RHS       0.052144
     27 HT41         4.0950    -1.7030     0.4330 hc         1 RHS       0.052144
     28 HT42         2.5430    -2.0900    -0.3210 hc         1 RHS       0.052144
     29 HT43         3.2600    -3.2050     0.8510 hc         1 RHS       0.052144
     30 H1'1         4.1420     0.1220     0.6400 hc         1 RHS       0.083200
     31 H1'2         3.2490     1.6450     0.5300 hc         1 RHS       0.083200
     32 HN           5.8260     1.5880     1.8190 hn         1 RHS       0.320500
     33 H3           5.2040     1.4010     4.7090 h1         1 RHS       0.086700
     34 H41          7.6090     1.8900     4.9990 hc         1 RHS       0.055950
     35 H42          7.7710     2.1340     3.2550 hc         1 RHS       0.055950
     36 H51          7.2980    -0.1570     2.7870 hc         1 RHS       0.037200
     37 H52          8.4220    -0.1870     4.1530 hc         1 RHS       0.037200
     38 H53          6.6920    -0.4440     4.4240 hc         1 RHS       0.037200
     39 H21          5.9280     3.7340     5.0990 hc         1 RHS       0.055950
     40 H22          6.0880     3.9760     3.3540 hc         1 RHS       0.055950
     41 H11          3.5020     3.1360     4.7060 hc         1 RHS       0.037200
     42 H12          3.9070     4.8140     4.3220 hc         1 RHS       0.037200
     43 H13          3.7160     3.6300     3.0210 hc         1 RHS       0.037200
     44 H'3         -0.3340     0.1690     0.9280 hn         1 RHS       0.477800
@<TRIPOS>BOND
     1     1     2 1
     2     1    18 1
     3     1    19 1
     4     2     3 2
     5     2     4 1
     6     4     5 1
     7     4     9 1
     8     4    20 1
     9     5     6 1
    10     5     7 1
    11     5     8 1
    12     6    21 1
    13     6    22 1
    14     6    23 1
    15     7    24 1
    16     7    25 1
    17     7    26 1
    18     8    27 1
    19     8    28 1
    20     8    29 1
    21     9    10 1
    22     9    30 1
    23     9    31 1
    24    10    11 2
    25    10    12 1
    26    12    13 1
    27    12    32 1
    28    13    14 1
    29    13    16 1
    30    13    33 1
    31    14    15 1
    32    14    34 1
    33    14    35 1
    34    15    36 1
    35    15    37 1
    36    15    38 1
    37    16    17 1
    38    16    39 1
    39    16    40 1
    40    17    41 1
    41    17    42 1
    42    17    43 1
    43    44     1 1
@<TRIPOS>SUBSTRUCTURE
     1 RHS         1 TEMP              0 ****  ****    0 ROOT
