@<TRIPOS>MOLECULE
molecule
   15    15     1     0     0
SMALL
bcc


@<TRIPOS>ATOM
      1 C01          0.0000     0.0000     0.0000 cc         1 RHU       0.509800
      2 N02          1.3140     0.0000     0.0000 nd         1 RHU      -0.361000
      3 N03          1.7510     0.0000     1.2090 nd         1 RHU      -0.283000
      4 C04          0.7520     0.0020     2.0450 cc         1 RHU       0.263800
      5 N05         -0.3990     0.0010     1.3060 na         1 RHU      -0.284700
      6 S06         -1.0480     0.0060    -1.4160 sh         1 RHU      -0.329100
      7 C07         -1.7750     0.0020     1.8100 c3         1 RHU       0.024600
      8 C08          0.8460     0.0030     3.5500 c3         1 RHU       0.627600
      9 F09          2.1480     0.3440     3.9340 f          1 RHU      -0.207300
     10 F10         -0.0550     0.9350     4.0730 f          1 RHU      -0.207300
     11 F11          0.5350    -1.2720     4.0370 f          1 RHU      -0.207300
     12 HS06        -0.3260    -0.2420    -2.5020 hs         1 RHU       0.240800
     13 H07         -1.9920     0.9610     2.2650 h1         1 RHU       0.071033
     14 H07A        -1.8890    -0.7830     2.5480 h1         1 RHU       0.071033
     15 H07B        -2.4600    -0.1720     0.9890 h1         1 RHU       0.071033
@<TRIPOS>BOND
     1     1     2 2
     2     1     5 1
     3     1     6 1
     4     2     3 1
     5     3     4 2
     6     4     5 1
     7     4     8 1
     8     5     7 1
     9     6    12 1
    10     7    13 1
    11     7    14 1
    12     7    15 1
    13     8     9 1
    14     8    10 1
    15     8    11 1
@<TRIPOS>SUBSTRUCTURE
     1 RHU         1 TEMP              0 ****  ****    0 ROOT
