@<TRIPOS>MOLECULE
RHU
   15    15     1     0     0
SMALL
bcc


@<TRIPOS>ATOM
      1 C01        -0.0460    0.0620   -0.0560 cc        1 RHU      0.454800
      2 N02         1.3370    0.1140   -0.0930 nd        1 RHU     -0.360000
      3 N03         1.8120    0.0770    1.1220 nd        1 RHU     -0.260000
      4 C04         0.7680    0.0010    2.0060 cc        1 RHU      0.243800
      5 N05        -0.4410   -0.0120    1.2860 na        1 RHU     -0.267700
      6 S06        -1.1150    0.0800   -1.3570 sh        1 RHU     -0.265100
      7 C07        -1.7750   -0.0820    1.7880 c3        1 RHU      0.009600
      8 C08         0.8550   -0.0630    3.5200 c3        1 RHU      0.644600
      9 F09         2.1260   -0.0370    4.0200 f         1 RHU     -0.221300
     10 F10         0.2010    0.9700    4.1460 f         1 RHU     -0.221300
     11 F11         0.2830   -1.1940    4.0510 f         1 RHU     -0.221300
     12 HS06       -0.2270    0.1540   -2.3470 hs        1 RHU      0.236800
     13 H07        -1.7460   -0.1380    2.9100 h1        1 RHU      0.075700
     14 H07A       -2.3480    0.8330    1.4740 h1        1 RHU      0.075700
     15 H07B       -2.2870   -0.9960    1.3800 h1        1 RHU      0.075700
@<TRIPOS>BOND
     1    1    2 2   
     2    1    5 1   
     3    1    6 1   
     4    2    3 1   
     5    3    4 2   
     6    4    5 1   
     7    4    8 1   
     8    5    7 1   
     9    6   12 1   
    10    7   13 1   
    11    7   14 1   
    12    7   15 1   
    13    8    9 1   
    14    8   10 1   
    15    8   11 1   
@<TRIPOS>SUBSTRUCTURE
     1 RHU         1 TEMP              0 ****  ****    0 ROOT
