@<TRIPOS>MOLECULE
molecule
   26    26     1     0     0
SMALL
bcc


@<TRIPOS>ATOM
      1 P            0.0000     0.0000     0.0000 p5         1 RI2       1.222900
      2 C1           5.5680     1.4930    -0.9370 c3         1 RI2       0.402900
      3 O1           6.4360     0.6140    -1.6540 os         1 RI2      -0.559200
      4 C2           6.0650     1.6530     0.5160 c3         1 RI2       0.082100
      5 O2           6.8800     0.5440     0.9000 oh         1 RI2      -0.543800
      6 C3           4.7370     1.6660     1.3200 c3         1 RI2       0.066100
      7 O3           4.9330     1.1730     2.6470 oh         1 RI2      -0.594800
      8 C4           3.8750     0.6890     0.4820 c3         1 RI2       0.145100
      9 O4           4.2490     0.9360    -0.8830 os         1 RI2      -0.354600
     10 C5           2.3870     0.9820     0.6870 c3         1 RI2       0.227400
     11 O5           1.6100     0.0000     0.0000 os         1 RI2      -0.558200
     12 PA           6.6820     0.7280    -3.2420 p5         1 RI2       1.195900
     13 O1A          5.3100     0.4090    -4.0210 o          1 RI2      -0.920167
     14 O1P         -0.4930     0.0000     1.3950 o          1 RI2      -0.934833
     15 O2A          7.1320     2.0980    -3.5750 o          1 RI2      -0.920167
     16 O2P         -0.5380     1.3140    -0.7600 o          1 RI2      -0.934833
     17 O3A          7.8110    -0.3300    -3.6860 o          1 RI2      -0.920167
     18 O3P         -0.5370    -1.3150    -0.7590 o          1 RI2      -0.934833
     19 H1           5.5360     2.4620    -1.4200 h2         1 RI2       0.047700
     20 H2           6.5950     2.5900     0.6380 h1         1 RI2      -0.007300
     21 HO2          7.7160     0.8580     1.2030 ho         1 RI2       0.352000
     22 H3           4.3000     2.6580     1.3270 h1         1 RI2       0.025700
     23 HO3          4.8610     1.8840     3.2610 ho         1 RI2       0.352000
     24 H4           4.1030    -0.3350     0.7520 h1         1 RI2       0.066700
     25 H5           2.1550     0.9510     1.7450 h1         1 RI2      -0.002300
     26 H5A          2.1560     1.9650     0.2950 h1         1 RI2      -0.002300
@<TRIPOS>BOND
     1    14     1 1
     2    11     1 1
     3     1    18 1
     4     1    16 1
     5     4     2 1
     6     3     2 1
     7     2     9 1
     8     2    19 1
     9     3    12 1
    10     5     4 1
    11     4     6 1
    12     4    20 1
    13     5    21 1
    14     7     6 1
    15     6     8 1
    16     6    22 1
    17     7    23 1
    18     8     9 1
    19     8    10 1
    20     8    24 1
    21    10    11 1
    22    10    25 1
    23    10    26 1
    24    15    12 1
    25    12    13 1
    26    12    17 1
@<TRIPOS>SUBSTRUCTURE
     1 RI2         1 TEMP              0 ****  ****    0 ROOT
