@<TRIPOS>MOLECULE
RI2
   26    26     1     0     0
SMALL
bcc


@<TRIPOS>ATOM
      1 P          -0.1720    0.7450    1.3280 p5        1 RI2      1.327900
      2 C1          5.3970    1.6040   -1.0500 c3        1 RI2      0.359900
      3 O1          6.2360    0.7230   -1.6700 os        1 RI2     -0.584200
      4 C2          5.5050    1.5040    0.5090 c3        1 RI2      0.064100
      5 O2          6.7970    1.2490    0.9970 oh        1 RI2     -0.668800
      6 C3          4.5240    0.3540    0.8390 c3        1 RI2      0.113100
      7 O3          5.1910   -0.8980    0.7840 oh        1 RI2     -0.641800
      8 C4          3.4530    0.4670   -0.2660 c3        1 RI2      0.093100
      9 O4          4.0510    1.1910   -1.3600 os        1 RI2     -0.467600
     10 C5          2.1790    1.2060    0.2070 c3        1 RI2      0.213400
     11 O5          1.5310    0.5020    1.2000 os        1 RI2     -0.582200
     12 PA          7.6260    1.3730   -2.4720 p5        1 RI2      1.327900
     13 O1A         7.9610    0.3730   -3.5460 o         1 RI2     -0.935833
     14 O1P        -0.3000    2.1520    1.8620 o         1 RI2     -0.950500
     15 O2A         7.2070    2.7360   -2.9530 o         1 RI2     -0.935833
     16 O2P        -0.6960    0.5590   -0.0750 o         1 RI2     -0.950500
     17 O3A         8.5740    1.3880   -1.2920 o         1 RI2     -0.935833
     18 O3P        -0.5830   -0.3310    2.3050 o         1 RI2     -0.950500
     19 H1          5.5180    2.6510   -1.4430 h2        1 RI2      0.071700
     20 H2          5.1490    2.4560    0.9830 h1        1 RI2      0.020700
     21 HO2         7.3880    1.1060    0.2160 ho        1 RI2      0.479000
     22 H3          4.0690    0.4130    1.8580 h1        1 RI2      0.080700
     23 HO3         5.7400   -0.8640   -0.0160 ho        1 RI2      0.424000
     24 H4          3.1850   -0.5490   -0.6550 h1        1 RI2      0.041700
     25 H5          2.5100    2.2200    0.5830 h1        1 RI2     -0.005300
     26 H5A         1.4940    1.3550   -0.6750 h1        1 RI2     -0.005300
@<TRIPOS>BOND
     1    1   11 1   
     2    1   14 1   
     3    1   16 1   
     4    1   18 1   
     5    2    3 1   
     6    2    4 1   
     7    2    9 1   
     8    2   19 1   
     9    3   12 1   
    10    4    5 1   
    11    4    6 1   
    12    4   20 1   
    13    5   21 1   
    14    6    7 1   
    15    6    8 1   
    16    6   22 1   
    17    7   23 1   
    18    8    9 1   
    19    8   10 1   
    20    8   24 1   
    21   10   11 1   
    22   10   25 1   
    23   10   26 1   
    24   12   13 1   
    25   12   15 1   
    26   12   17 1   
@<TRIPOS>SUBSTRUCTURE
     1 RI2         1 TEMP              0 ****  ****    0 ROOT
