@<TRIPOS>MOLECULE
RI5
   37    41     1     0     0
SMALL
bcc


@<TRIPOS>ATOM
      1 C01         0.4560   -0.8760   -0.3600 c3        1 RI5     -0.063900
      2 C02         1.3610    0.2890   -0.1870 c2        1 RI5     -0.094400
      3 C03         1.2950    1.3340   -1.0210 c2        1 RI5     -0.225000
      4 C04         2.2440    0.2840    1.0050 c3        1 RI5     -0.049500
      5 C05         3.5080    1.1780    0.9610 c3        1 RI5      0.126100
      6 C06         4.3460    0.8150   -0.2670 c3        1 RI5      0.126100
      7 C07         4.5430   -0.7060   -0.5240 c3        1 RI5     -0.051000
      8 C08         3.7320   -1.7180    0.3520 c3        1 RI5      0.183800
      9 C09         2.9150   -1.0340    1.4660 c3        1 RI5     -0.175700
     10 C10         3.8780   -0.4760    2.5090 c         1 RI5      0.707600
     11 O11         4.3520   -0.9410    3.5350 o         1 RI5     -0.552500
     12 O12         4.2210    0.8250    2.1790 os        1 RI5     -0.389900
     13 C13         4.7620   -2.7200    0.9600 c3        1 RI5     -0.131400
     14 C14         6.1290   -2.1010    0.8040 cx        1 RI5      0.108100
     15 C15         6.0030   -0.9110   -0.0890 cx        1 RI5     -0.047200
     16 O16         6.6550   -2.0940   -0.5390 os        1 RI5     -0.334600
     17 C17         6.6380    0.4260   -0.0190 c         1 RI5      0.760600
     18 O18         7.7880    0.8150    0.1110 o         1 RI5     -0.526500
     19 O19         5.6620    1.4040   -0.1270 os        1 RI5     -0.395900
     20 O20         2.8570   -2.4290   -0.5120 oh        1 RI5     -0.576800
     21 C21         4.3610   -0.9920   -2.0020 c3        1 RI5     -0.076100
     22 H01         0.3930   -1.4860    0.5740 hc        1 RI5      0.049033
     23 H01A       -0.5740   -0.5380   -0.6330 hc        1 RI5      0.049033
     24 H01B        0.8410   -1.5340   -1.1810 hc        1 RI5      0.049033
     25 H03         0.5910    1.3570   -1.8630 ha        1 RI5      0.120000
     26 H03A        1.9220    2.2280   -0.9150 ha        1 RI5      0.120000
     27 H04         1.6010    0.6420    1.8650 hc        1 RI5      0.082700
     28 H05         3.3230    2.2770    1.0320 h1        1 RI5      0.113700
     29 H06         3.8970    1.3130   -1.1720 h1        1 RI5      0.098700
     30 H09         2.1900   -1.7500    1.9190 hc        1 RI5      0.099700
     31 H13         4.5480   -2.9130    2.0400 hc        1 RI5      0.088200
     32 H13A        4.7080   -3.6880    0.3990 hc        1 RI5      0.088200
     33 H14         6.8800   -2.2320    1.6000 h1        1 RI5      0.134700
     34 HO20        2.3910   -3.0780    0.0330 ho        1 RI5      0.408000
     35 H21         3.2890   -0.8600   -2.2870 hc        1 RI5      0.058367
     36 H21A        4.6620   -2.0460   -2.2200 hc        1 RI5      0.058367
     37 H21B        4.9960   -0.3010   -2.6070 hc        1 RI5      0.058367
@<TRIPOS>BOND
     1    1    2 1   
     2    1   22 1   
     3    1   23 1   
     4    1   24 1   
     5    2    3 2   
     6    2    4 1   
     7    3   25 1   
     8    3   26 1   
     9    4    5 1   
    10    4    9 1   
    11    4   27 1   
    12    5    6 1   
    13    5   12 1   
    14    5   28 1   
    15    6    7 1   
    16    6   19 1   
    17    6   29 1   
    18    7    8 1   
    19    7   15 1   
    20    7   21 1   
    21    8    9 1   
    22    8   13 1   
    23    8   20 1   
    24    9   10 1   
    25    9   30 1   
    26   10   11 2   
    27   10   12 1   
    28   13   14 1   
    29   13   31 1   
    30   13   32 1   
    31   14   15 1   
    32   14   16 1   
    33   14   33 1   
    34   15   16 1   
    35   15   17 1   
    36   17   18 2   
    37   17   19 1   
    38   20   34 1   
    39   21   35 1   
    40   21   36 1   
    41   21   37 1   
@<TRIPOS>SUBSTRUCTURE
     1 RI5         1 TEMP              0 ****  ****    0 ROOT
