@<TRIPOS>MOLECULE
molecule
   37    41     1     0     0
SMALL
bcc


@<TRIPOS>ATOM
      1 C01          0.0000     0.0000     0.0000 c3         1 RI5      -0.044900
      2 C02          1.5070     0.0000     0.0000 c2         1 RI5      -0.139400
      3 C03          2.1620    -0.0000    -1.1340 c2         1 RI5      -0.272000
      4 C04          2.2610     0.0000     1.3050 c3         1 RI5      -0.046500
      5 C05          3.4510     0.9950     1.2800 c3         1 RI5       0.128100
      6 C06          4.0900     0.9080    -0.1070 c3         1 RI5       0.126100
      7 C07          4.4350    -0.5140    -0.5290 c3         1 RI5      -0.076000
      8 C08          3.7030    -1.6510     0.1490 c3         1 RI5       0.178800
      9 C09          3.0810    -1.3050     1.4950 c3         1 RI5      -0.202700
     10 C10          4.2030    -0.8580     2.4220 c          1 RI5       0.731600
     11 O11          4.8230    -1.5720     3.1740 o          1 RI5      -0.556500
     12 O12          4.3900     0.4620     2.2630 os         1 RI5      -0.384900
     13 C13          4.7690    -2.7560     0.3490 c3         1 RI5      -0.111400
     14 C14          6.0770    -1.9600     0.6000 cx         1 RI5       0.079100
     15 C15          5.9270    -0.6400    -0.1670 cx         1 RI5      -0.116200
     16 O16          6.8390    -1.6730    -0.5850 op         1 RI5      -0.292600
     17 C17          6.3440     0.7390     0.2740 c          1 RI5       0.776600
     18 O18          7.3820     1.0160     0.8270 o          1 RI5      -0.524500
     19 O19          5.3730     1.6130    -0.0480 os         1 RI5      -0.386900
     20 O20          2.6890    -2.1470    -0.7260 oh         1 RI5      -0.578800
     21 C21          4.2670    -0.6520    -2.0430 c3         1 RI5      -0.097100
     22 H01         -0.3610     1.0200    -0.0470 hc         1 RI5       0.043033
     23 H01A        -0.3610    -0.4700     0.9070 hc         1 RI5       0.043033
     24 H01B        -0.3610    -0.5510    -0.8600 hc         1 RI5       0.043033
     25 H03          3.2450    -0.0010    -1.1350 ha         1 RI5       0.161000
     26 H03A         1.6200    -0.0010    -2.0720 ha         1 RI5       0.161000
     27 H04          1.6060     0.1840     2.1480 hc         1 RI5       0.086700
     28 H05          3.1390     2.0040     1.5230 h1         1 RI5       0.119700
     29 H06          3.4460     1.3700    -0.8450 h1         1 RI5       0.133700
     30 H09          2.4910    -2.1140     1.9090 hc         1 RI5       0.107700
     31 H13          4.5250    -3.3680     1.2090 hc         1 RI5       0.083200
     32 H13A         4.8590    -3.3620    -0.5450 hc         1 RI5       0.083200
     33 H14          6.5140    -1.8380     1.5840 h1         1 RI5       0.148700
     34 HO20         2.5530    -3.0650    -0.5620 ho         1 RI5       0.404000
     35 H21          5.1030    -1.2070    -2.4510 hc         1 RI5       0.065033
     36 H21A         3.3450    -1.1780    -2.2580 hc         1 RI5       0.065033
     37 H21B         4.2330     0.3330    -2.4940 hc         1 RI5       0.065033
@<TRIPOS>BOND
     1     1     2 1
     2     1    22 1
     3     1    23 1
     4     1    24 1
     5     2     3 2
     6     2     4 1
     7     3    25 1
     8     3    26 1
     9     5     4 1
    10     4     9 1
    11     4    27 1
    12     6     5 1
    13     5    12 1
    14     5    28 1
    15     6    19 1
    16     6     7 1
    17     6    29 1
    18    21     7 1
    19     7    15 1
    20     7     8 1
    21    20     8 1
    22     8     9 1
    23     8    13 1
    24     9    10 1
    25     9    30 1
    26    12    10 1
    27    10    11 2
    28    14    13 1
    29    13    31 1
    30    13    32 1
    31    15    14 1
    32    16    14 1
    33    14    33 1
    34    17    15 1
    35    15    16 1
    36    19    17 1
    37    17    18 2
    38    20    34 1
    39    21    35 1
    40    21    36 1
    41    21    37 1
@<TRIPOS>SUBSTRUCTURE
     1 RI5         1 TEMP              0 ****  ****    0 ROOT
