@<TRIPOS>MOLECULE
RI8
   43    45     1     0     0
SMALL
bcc


@<TRIPOS>ATOM
      1 C1           0.0000     0.0000     0.0000 ca         1 RI8       0.631900
      2 N2           1.3210     0.0000     0.0000 nb         1 RI8      -0.632000
      3 C3           2.0030     0.0000     1.1380 ca         1 RI8       0.585200
      4 C4           1.2950    -0.0010     2.3540 ca         1 RI8      -0.248700
      5 C5          -0.0970    -0.0000     2.3120 ca         1 RI8       0.472100
      6 N6          -0.7000     0.0050     1.1080 nb         1 RI8      -0.553000
      7 S7           1.8490     0.0000     4.0190 ss         1 RI8      -0.122500
      8 C8           0.2650     0.0000     4.6400 cc         1 RI8      -0.005400
      9 C9          -0.6640    -0.0010     3.6560 cd         1 RI8      -0.258000
     10 N10          3.3880    -0.0000     1.1290 nv         1 RI8      -0.652500
     11 C11         -2.1090    -0.0000     3.9170 c          1 RI8       0.587300
     12 O12         -2.8960     0.0000     2.9890 o          1 RI8      -0.585100
     13 N13         -2.5650     0.0000     5.1860 ns         1 RI8      -0.039100
     14 C14         -3.9380     0.1190     5.4370 ca         1 RI8      -0.119400
     15 C15         -4.8450    -0.6510     4.7210 ca         1 RI8       0.108900
     16 C16         -6.2060    -0.5300     4.9740 ca         1 RI8       0.044600
     17 C17         -6.6550     0.3600     5.9410 ca         1 RI8      -0.146000
     18 C18         -5.7500     1.1270     6.6520 ca         1 RI8      -0.094000
     19 C19         -4.3940     1.0060     6.4070 ca         1 RI8       0.068900
     20 N20         -7.1240    -1.3040     4.2550 nu         1 RI8      -0.392500
     21 F21         -4.4050    -1.5160     3.7820 f          1 RI8      -0.106900
     22 F22         -3.5120     1.7520     7.1070 f          1 RI8      -0.124900
     23 S23         -8.5950    -0.6690     3.8360 s6         1 RI8       0.953900
     24 O24         -9.2080    -1.6880     3.0580 o          1 RI8      -0.579800
     25 O25         -9.1600    -0.2490     5.0700 o          1 RI8      -0.579800
     26 C26         -8.1900     0.7650     2.8010 c3         1 RI8      -0.012600
     27 C27         -9.4820     1.4460     2.3450 c3         1 RI8       0.005600
     28 C28         -9.1410     2.6550     1.4720 c3         1 RI8       0.007900
     29 H1          -0.5230    -0.0000    -0.9490 h5         1 RI8       0.004100
     30 H8           0.0290     0.0010     5.6970 h4         1 RI8       0.152000
     31 HN10         3.8880    -0.8670     1.1160 hn         1 RI8       0.285800
     32 HN1A         3.8880     0.8660     1.1160 hn         1 RI8       0.285800
     33 HN13        -1.9160     0.0340     5.9470 hn         1 RI8       0.174500
     34 H17         -7.7160     0.4560     6.1360 ha         1 RI8       0.184000
     35 H18         -6.1030     1.8190     7.4070 ha         1 RI8       0.125000
     36 HN20        -6.8750    -2.2270     3.9560 hn         1 RI8       0.359800
     37 H26         -7.6290     0.4370     1.9340 h1         1 RI8       0.074700
     38 H26A        -7.5940     1.4660     3.3720 h1         1 RI8       0.074700
     39 H27        -10.0430     1.7730     3.2120 hc         1 RI8       0.025700
     40 H27A       -10.0780     0.7440     1.7730 hc         1 RI8       0.025700
     41 H28         -8.5800     2.3270     0.6040 hc         1 RI8       0.005033
     42 H28A       -10.0560     3.1370     1.1490 hc         1 RI8       0.005033
     43 H28B        -8.5450     3.3560     2.0430 hc         1 RI8       0.005033
@<TRIPOS>BOND
     1     1     2 ar  
     2     1     6 ar  
     3     1    29 1   
     4     2     3 ar  
     5     3     4 ar  
     6     3    10 1   
     7     4     5 ar  
     8     4     7 1   
     9     5     6 ar  
    10     5     9 1   
    11     7     8 1   
    12     8     9 2   
    13     8    30 1   
    14     9    11 1   
    15    10    31 1   
    16    10    32 1   
    17    11    12 2   
    18    11    13 1   
    19    13    14 1   
    20    13    33 1   
    21    14    15 ar  
    22    14    19 ar  
    23    15    16 ar  
    24    15    21 1   
    25    16    17 ar  
    26    16    20 1   
    27    17    18 ar  
    28    17    34 1   
    29    18    19 ar  
    30    18    35 1   
    31    19    22 1   
    32    20    23 1   
    33    20    36 1   
    34    23    24 2   
    35    23    25 2   
    36    23    26 1   
    37    26    27 1   
    38    26    37 1   
    39    26    38 1   
    40    27    28 1   
    41    27    39 1   
    42    27    40 1   
    43    28    41 1   
    44    28    42 1   
    45    28    43 1   
@<TRIPOS>SUBSTRUCTURE
     1 RI8         1 TEMP              0 ****  ****    0 ROOT
