@<TRIPOS>MOLECULE
molecule
   49    50     1     0     0
SMALL
bcc


@<TRIPOS>ATOM
      1 O1           0.0000     0.0000     0.0000 o          1 RI9      -0.558100
      2 C2           1.2150     0.0000     0.0000 c          1 RI9       0.771100
      3 N3           1.8890     0.0000     1.1680 ns         1 RI9      -0.555400
      4 C4           1.1970    -0.1120     2.3700 ca         1 RI9       0.634200
      5 N5          -0.1160    -0.3300     2.3750 nb         1 RI9      -0.773000
      6 C6          -0.7780    -0.4380     3.5080 ca         1 RI9       0.748900
      7 N7          -0.1810    -0.3350     4.6780 nb         1 RI9      -0.831000
      8 C8           1.1310    -0.1160     4.7570 ca         1 RI9       0.752200
      9 C9           1.8680    -0.0020     3.5820 ca         1 RI9      -0.503600
     10 N10          1.7520    -0.0090     5.9910 nu         1 RI9      -0.901900
     11 N11          1.8890    -0.0060    -1.1670 ns         1 RI9      -0.493100
     12 C12          1.1930    -0.1180    -2.3780 ca         1 RI9       0.016600
     13 C13          0.0740     0.6680    -2.6120 ca         1 RI9       0.139900
     14 C14         -0.6130     0.5530    -3.8140 ca         1 RI9       0.108600
     15 C15         -0.1790    -0.3460    -4.7770 ca         1 RI9      -0.150000
     16 C16          0.9370    -1.1280    -4.5420 ca         1 RI9      -0.142000
     17 C17          1.6270    -1.0140    -3.3490 ca         1 RI9       0.109900
     18 F18          2.7190    -1.7760    -3.1250 f          1 RI9      -0.135900
     19 F19         -0.3480     1.5430    -1.6730 f          1 RI9      -0.105900
     20 N20         -1.7430     1.3450    -4.0540 nu         1 RI9      -0.755500
     21 S21         -3.0220     0.7270    -4.9060 s6         1 RI9       1.325900
     22 C22         -3.5700    -0.6990    -3.9280 c3         1 RI9      -0.220600
     23 O23         -3.9970     1.7600    -4.8730 o          1 RI9      -0.626300
     24 O24         -2.4490     0.2980    -6.1340 o          1 RI9      -0.626300
     25 C25         -4.7620    -1.3650    -4.6200 c3         1 RI9      -0.063400
     26 C26         -5.2250    -2.5670    -3.7960 c3         1 RI9      -0.082100
     27 C27          3.1950     0.2310     6.0660 c3         1 RI9       0.240800
     28 C28          3.6240     0.3080     7.5330 c3         1 RI9       0.124400
     29 O29          3.4200    -0.9620     8.1560 oh         1 RI9      -0.606800
     30 HN3          2.8860     0.0800     1.1710 hn         1 RI9       0.325500
     31 H6          -1.8470    -0.6160     3.4780 h5         1 RI9       0.063100
     32 H9           2.9370     0.1760     3.6120 ha         1 RI9       0.136000
     33 HN10         1.2140    -0.0880     6.8310 hn         1 RI9       0.462800
     34 HN11         2.8890     0.0260    -1.1660 hn         1 RI9       0.325500
     35 H15         -0.7150    -0.4370    -5.7140 ha         1 RI9       0.199000
     36 H16          1.2750    -1.8280    -5.2970 ha         1 RI9       0.158000
     37 HN20        -1.7950     2.2700    -3.6760 hn         1 RI9       0.474800
     38 H22         -3.8660    -0.3670    -2.9400 h1         1 RI9       0.106700
     39 H22A        -2.7590    -1.4110    -3.8420 h1         1 RI9       0.106700
     40 H25         -5.5730    -0.6520    -4.7070 hc         1 RI9       0.053700
     41 H25A        -4.4660    -1.6970    -5.6080 hc         1 RI9       0.053700
     42 H26         -4.4130    -3.2790    -3.7090 hc         1 RI9       0.039700
     43 H26A        -5.5200    -2.2350    -2.8080 hc         1 RI9       0.039700
     44 H26B        -6.0680    -3.0380    -4.2860 hc         1 RI9       0.039700
     45 H27          3.4320     1.1660     5.5720 h1         1 RI9       0.050200
     46 H27A         3.7220    -0.5790     5.5780 h1         1 RI9       0.050200
     47 H28          4.6730     0.5730     7.5900 h1         1 RI9       0.033200
     48 H28A         3.0340     1.0590     8.0440 h1         1 RI9       0.033200
     49 HO29         3.8680    -0.9810     8.9850 ho         1 RI9       0.408000
@<TRIPOS>BOND
     1     1     2 2
     2     2    11 1
     3     2     3 1
     4     3     4 1
     5     3    30 1
     6     4     5 ar
     7     4     9 ar
     8     5     6 ar
     9     6     7 ar
    10     6    31 1
    11     8     7 ar
    12     9     8 ar
    13     8    10 1
    14     9    32 1
    15    27    10 1
    16    10    33 1
    17    12    11 1
    18    11    34 1
    19    13    12 ar
    20    12    17 ar
    21    19    13 1
    22    14    13 ar
    23    20    14 1
    24    14    15 ar
    25    15    16 ar
    26    15    35 1
    27    16    17 ar
    28    16    36 1
    29    17    18 1
    30    21    20 1
    31    20    37 1
    32    24    21 2
    33    21    22 1
    34    21    23 2
    35    25    22 1
    36    22    38 1
    37    22    39 1
    38    25    26 1
    39    25    40 1
    40    25    41 1
    41    26    42 1
    42    26    43 1
    43    26    44 1
    44    27    28 1
    45    27    45 1
    46    27    46 1
    47    28    29 1
    48    28    47 1
    49    28    48 1
    50    29    49 1
@<TRIPOS>SUBSTRUCTURE
     1 RI9         1 TEMP              0 ****  ****    0 ROOT
