@<TRIPOS>MOLECULE
RIC
   41    43     1     0     0
SMALL
bcc


@<TRIPOS>ATOM
      1 N3          0.1960    0.7650    0.1070 nc        1 RIC     -0.624100
      2 N1          1.9340    0.4140    1.5800 na        1 RIC     -0.155300
      3 C2          1.5320    0.6800    0.2580 cd        1 RIC      0.458700
      4 C7A         0.7580    0.2960    2.3280 ca        1 RIC     -0.064200
      5 C3A        -0.3360    0.5290    1.3900 ca        1 RIC      0.068400
      6 C4         -1.6530    0.4930    1.8550 ca        1 RIC     -0.085000
      7 C5         -1.8920    0.2320    3.2010 ca        1 RIC     -0.123300
      8 C6         -0.8250    0.0030    4.1030 ca        1 RIC     -0.094300
      9 C7          0.5000    0.0340    3.6760 ca        1 RIC     -0.117000
     10 C8         -3.2880    0.1900    3.7000 c3        1 RIC     -0.032800
     11 C9         -1.1220   -0.2770    5.5290 c3        1 RIC     -0.036800
     12 PN          7.7830   -0.6020   -1.1200 p5        1 RIC      1.331900
     13 OP1         8.3710   -0.3540    0.2420 o         1 RIC     -0.927500
     14 OP2         8.6130   -1.3140   -2.1400 o         1 RIC     -0.927500
     15 OP3         6.9190    0.5530   -1.5920 o         1 RIC     -0.927500
     16 O6Q         6.5130   -1.7400   -0.7560 os        1 RIC     -0.562200
     17 C5Q         5.9250   -1.6240    0.4720 c3        1 RIC      0.224400
     18 C4Q         4.6390   -0.7610    0.3890 c3        1 RIC      0.054100
     19 O5Q         3.8310   -1.0060    1.5690 os        1 RIC     -0.428600
     20 C3Q         4.9720    0.7440    0.3560 c3        1 RIC      0.088100
     21 O3Q         4.4130    1.3550   -0.7890 oh        1 RIC     -0.698800
     22 C2Q         4.3060    1.3330    1.6140 c3        1 RIC      0.111100
     23 O2Q         3.7230    2.6000    1.4600 oh        1 RIC     -0.609800
     24 C1Q         3.2950    0.2170    2.0560 c3        1 RIC      0.211800
     25 H21         2.2940    0.8030   -0.5380 h5        1 RIC      0.117800
     26 H41        -2.4860    0.6680    1.1600 ha        1 RIC      0.127000
     27 H71         1.3230   -0.1480    4.3800 ha        1 RIC      0.132000
     28 H81        -4.0190    0.3850    2.8780 hc        1 RIC      0.025700
     29 H82        -3.4400    0.9600    4.4970 hc        1 RIC      0.025700
     30 H83        -3.5140   -0.8130    4.1410 hc        1 RIC      0.025700
     31 H91        -1.7530   -1.1960    5.6210 hc        1 RIC      0.028700
     32 H92        -0.1850   -0.4320    6.1170 hc        1 RIC      0.028700
     33 H93        -1.6860    0.5760    5.9840 hc        1 RIC      0.028700
     34 HC51        5.6080   -2.6450    0.8350 h1        1 RIC      0.009700
     35 HC52        6.6300   -1.1640    1.2220 h1        1 RIC      0.009700
     36 HC4Q        4.0270   -1.0530   -0.5030 h1        1 RIC      0.056700
     37 HC3Q        6.1040    0.8760    0.3360 h1        1 RIC      0.171700
     38 HO3Q        5.1170    1.2890   -1.4780 ho        1 RIC      0.509000
     39 HC2Q        5.0600    1.4420    2.4410 h1        1 RIC      0.077700
     40 HO2Q        3.5200    2.7180    0.5190 ho        1 RIC      0.427000
     41 H1Q1        3.2410    0.1130    3.1770 h2        1 RIC      0.065700
@<TRIPOS>BOND
     1    1    3 2   
     2    1    5 1   
     3    2    3 1   
     4    2    4 1   
     5    2   24 1   
     6    3   25 1   
     7    4    5 ar  
     8    4    9 ar  
     9    5    6 ar  
    10    6    7 ar  
    11    6   26 1   
    12    7    8 ar  
    13    7   10 1   
    14    8    9 ar  
    15    8   11 1   
    16    9   27 1   
    17   10   28 1   
    18   10   29 1   
    19   10   30 1   
    20   11   31 1   
    21   11   32 1   
    22   11   33 1   
    23   12   13 1   
    24   12   14 1   
    25   12   15 1   
    26   12   16 1   
    27   16   17 1   
    28   17   18 1   
    29   17   34 1   
    30   17   35 1   
    31   18   19 1   
    32   18   20 1   
    33   18   36 1   
    34   19   24 1   
    35   20   21 1   
    36   20   22 1   
    37   20   37 1   
    38   21   38 1   
    39   22   23 1   
    40   22   24 1   
    41   22   39 1   
    42   23   40 1   
    43   24   41 1   
@<TRIPOS>SUBSTRUCTURE
     1 RIC         1 TEMP              0 ****  ****    0 ROOT
