@<TRIPOS>MOLECULE
molecule
   41    43     1     0     0
SMALL
bcc


@<TRIPOS>ATOM
      1 N3           0.0000     0.0000     0.0000 nc         1 RIC      -0.650100
      2 N1           1.7690     0.0000     1.2770 na         1 RIC      -0.142300
      3 C2           1.3010     0.0000     0.0000 cd         1 RIC       0.501700
      4 C7A          0.6720     0.0020     2.1150 ca         1 RIC      -0.093200
      5 C3A         -0.4560     0.0010     1.2790 ca         1 RIC       0.098400
      6 C4          -1.7330     0.0020     1.8460 ca         1 RIC      -0.078000
      7 C5          -1.8740     0.0030     3.2040 ca         1 RIC      -0.115300
      8 C6          -0.7600     0.0080     4.0320 ca         1 RIC      -0.097300
      9 C7           0.5090     0.0020     3.4930 ca         1 RIC      -0.114000
     10 C8          -3.2530     0.0030     3.8110 c3         1 RIC      -0.034800
     11 C9          -0.9400     0.0080     5.5280 c3         1 RIC      -0.035800
     12 PN           7.4550    -2.1330    -1.4020 p5         1 RIC       1.148900
     13 OP1          7.9680    -2.7100    -0.1400 o          1 RIC      -0.907167
     14 OP2          7.2840    -3.3020    -2.4950 o          1 RIC      -0.907167
     15 OP3          8.4940    -1.0350    -1.9510 o          1 RIC      -0.907167
     16 O6Q          6.0290    -1.4380    -1.1330 os         1 RIC      -0.524200
     17 C5Q          6.2440    -0.4140    -0.1610 c3         1 RIC       0.164400
     18 C4Q          4.9210     0.2900     0.1420 c3         1 RIC       0.131100
     19 O5Q          3.9730    -0.6410     0.6850 os         1 RIC      -0.357600
     20 C3Q          5.1180     1.3580     1.2470 c3         1 RIC       0.086100
     21 O3Q          5.5320     2.6070     0.6890 oh         1 RIC      -0.577800
     22 C2Q          3.6790     1.4530     1.8270 c3         1 RIC       0.066100
     23 O2Q          2.8770     2.3490     1.0560 oh         1 RIC      -0.571800
     24 C1Q          3.1760     0.0000     1.6860 c3         1 RIC       0.247800
     25 H21          1.9220    -0.0010    -0.8880 h5         1 RIC       0.102800
     26 H41         -2.6090    -0.0020     1.2090 ha         1 RIC       0.129000
     27 H71          1.3760     0.0060     4.1440 ha         1 RIC       0.121000
     28 H81         -3.9950    -0.0040     3.0220 hc         1 RIC       0.030367
     29 H82         -3.3800     0.8920     4.4180 hc         1 RIC       0.030367
     30 H83         -3.3760    -0.8770     4.4300 hc         1 RIC       0.030367
     31 H91         -1.5010     0.8860     5.8240 hc         1 RIC       0.032033
     32 H92         -1.4780    -0.8820     5.8270 hc         1 RIC       0.032033
     33 H93          0.0320     0.0220     6.0080 hc         1 RIC       0.032033
     34 HC51         6.9490     0.3110    -0.5490 h1         1 RIC       0.053700
     35 HC52         6.6430    -0.8550     0.7450 h1         1 RIC       0.053700
     36 HC4Q         4.5210     0.7500    -0.7530 h1         1 RIC       0.072700
     37 HC3Q         5.8140     1.0100     2.0000 h1         1 RIC       0.059700
     38 HO3Q         6.1950     2.9920     1.2390 ho         1 RIC       0.390000
     39 HC2Q         3.7050     1.7490     2.8680 h1         1 RIC       0.026700
     40 HO2Q         2.8360     3.1850     1.4880 ho         1 RIC       0.395000
     41 H1Q1         3.2880    -0.5190     2.6310 h2         1 RIC       0.078700
@<TRIPOS>BOND
     1     1     3 2
     2     1     5 1
     3     2     3 1
     4     2     4 1
     5     2    24 1
     6     3    25 1
     7     4     5 ar
     8     4     9 ar
     9     5     6 ar
    10     6     7 ar
    11     6    26 1
    12     7     8 ar
    13     7    10 1
    14     8     9 ar
    15     8    11 1
    16     9    27 1
    17    10    28 1
    18    10    29 1
    19    10    30 1
    20    11    31 1
    21    11    32 1
    22    11    33 1
    23    12    13 1
    24    12    14 1
    25    12    15 1
    26    12    16 1
    27    16    17 1
    28    17    18 1
    29    17    34 1
    30    17    35 1
    31    18    19 1
    32    18    20 1
    33    18    36 1
    34    19    24 1
    35    20    21 1
    36    20    22 1
    37    20    37 1
    38    21    38 1
    39    22    23 1
    40    22    24 1
    41    22    39 1
    42    23    40 1
    43    24    41 1
@<TRIPOS>SUBSTRUCTURE
     1 RIC         1 TEMP              0 ****  ****    0 ROOT
