@<TRIPOS>MOLECULE
RID
   77    80     1     0     0
SMALL
bcc


@<TRIPOS>ATOM
      1 N1           0.0000     0.0000     0.0000 na         1 RID       0.486900
      2 N3           0.1570    -1.2820     4.6240 n3         1 RID      -0.357500
      3 C5           1.3710     0.0000     0.0000 cc         1 RID      -0.266300
      4 C6          -1.8870    -0.0110     1.7210 c3         1 RID      -0.086400
      5 C7          -0.8520     0.0000    -1.1920 c3         1 RID      -0.094700
      6 C8          -1.0330     1.4360    -1.6880 c3         1 RID      -0.092400
      7 C10         -2.1160     2.8650    -3.4280 c3         1 RID      -0.044400
      8 C13         -2.5490    -1.3160     1.2730 c3         1 RID       0.000400
      9 C15          2.9410    -1.0050    -3.2590 ca         1 RID      -0.129500
     10 C17          1.5610    -1.9940     5.0540 c3         1 RID       0.125300
     11 C20          1.3570    -2.6020     6.6490 c3         1 RID       0.241900
     12 C21          3.2060     0.9980    -1.3550 ca         1 RID      -0.069500
     13 C22          5.3230    -1.0760     2.0050 ca         1 RID      -0.110500
     14 C24          4.0180     0.9930    -2.4690 ca         1 RID      -0.129500
     15 C26         -0.7790    -2.0180     4.7160 c3         1 RID       0.125300
     16 C28          5.8080     0.0160     2.7010 ca         1 RID      -0.108000
     17 O5          -0.9070     0.8350     3.7760 o          1 RID      -0.512800
     18 S1           0.5660    -0.0020     3.8800 sy         1 RID       0.812200
     19 O2           1.8600     0.3790     4.3230 o          1 RID      -0.512800
     20 C23         -1.3530    -2.5680     6.1490 c3         1 RID       0.241900
     21 O1          -0.0930    -3.3390     6.5070 os         1 RID      -0.492600
     22 C2           0.6210    -0.0020     2.1190 cd         1 RID      -0.187500
     23 C1           1.7880     0.0000     1.3200 cd         1 RID      -0.024000
     24 C31          3.1890     0.0040     1.8040 ca         1 RID      -0.008000
     25 C25          4.0190    -1.0870     1.5530 ca         1 RID      -0.072000
     26 C19          4.9900     1.1040     2.9480 ca         1 RID      -0.110500
     27 C16          3.6850     1.1060     2.5000 ca         1 RID      -0.072000
     28 C12         -0.4420    -0.0070     1.2900 cc         1 RID      -0.138600
     29 C14         -2.6120     1.1750     1.0810 c3         1 RID       0.000400
     30 C27          2.2430     0.0010    -1.1910 ca         1 RID       0.001000
     31 C30          3.8880    -0.0060    -3.4210 ca         1 RID       0.100900
     32 F1           4.7040    -0.0240    -4.4970 f          1 RID      -0.130900
     33 C18          2.1190    -1.0080    -2.1510 ca         1 RID      -0.069500
     34 C9          -2.0280     1.4520    -2.8500 c3         1 RID       0.207100
     35 O4          -3.3170     1.0480    -2.3800 oh         1 RID      -0.553800
     36 C11         -2.8780     2.7740    -4.5630 c3         1 RID       0.240100
     37 O3          -4.3240     2.0660    -4.1270 oh         1 RID      -0.689800
     38 C35         -3.3720     3.7520    -5.2150 c3         1 RID      -0.291400
     39 C36         -4.1770     3.6900    -6.6910 c          1 RID       1.079600
     40 O7          -4.6460     2.5970    -6.5970 o          1 RID      -0.858300
     41 O6          -4.1740     4.4980    -7.6360 o          1 RID      -0.858300
     42 H6          -1.6990    -0.0490     2.7870 hc         1 RID       0.153700
     43 H7          -1.7890    -0.4940    -0.9660 h1         1 RID       0.052200
     44 H7A         -0.3510    -0.5270    -1.9950 h1         1 RID       0.052200
     45 H8          -0.0890     1.8100    -2.0640 hc         1 RID       0.038200
     46 H8A         -1.3710     2.0610    -0.8710 hc         1 RID       0.038200
     47 H10         -2.5900     3.5290    -2.7140 hc         1 RID       0.022200
     48 H10A        -1.1250     3.2280    -3.6730 hc         1 RID       0.022200
     49 H13         -3.3840    -1.5390     1.9260 hc         1 RID       0.009200
     50 H13A        -1.8270    -2.1220     1.3210 hc         1 RID       0.009200
     51 H13B        -2.9040    -1.2100     0.2550 hc         1 RID       0.009200
     52 H15          2.8430    -1.7840    -4.0050 ha         1 RID       0.118000
     53 H17          2.3620    -1.2650     5.0380 h1         1 RID       0.035200
     54 H17A         1.7830    -2.8090     4.3760 h1         1 RID       0.035200
     55 H20          1.3130    -1.7940     7.3700 h1         1 RID       0.016200
     56 H20A         2.1340    -3.3150     6.8950 h1         1 RID       0.016200
     57 H21          3.2800     1.8040    -0.6350 ha         1 RID       0.114500
     58 H22          5.9670    -1.9260     1.8130 ha         1 RID       0.098000
     59 H24          4.7660     1.7650    -2.5980 ha         1 RID       0.118000
     60 H26         -0.5380    -2.8950     4.1280 h1         1 RID       0.035200
     61 H26A        -1.6080    -1.5200     4.2270 h1         1 RID       0.035200
     62 H28          6.8350     0.0260     3.0450 ha         1 RID       0.095000
     63 H23         -2.2050    -3.2240     6.0180 h1         1 RID       0.016200
     64 H23A        -1.5450    -1.7600     6.8450 h1         1 RID       0.016200
     65 H25          3.6420    -1.9440     1.0080 ha         1 RID       0.110500
     66 H19          5.3830     1.9690     3.4690 ha         1 RID       0.098000
     67 H16          3.0490     1.9650     2.6780 ha         1 RID       0.110500
     68 H14         -3.0230     0.8730     0.1250 hc         1 RID       0.009200
     69 H14A        -1.9120     1.9890     0.9320 hc         1 RID       0.009200
     70 H14B        -3.4130     1.5020     1.7320 hc         1 RID       0.009200
     71 H18          1.3620    -1.7750    -2.0400 ha         1 RID       0.114500
     72 H9          -1.6950     0.7670    -3.6210 h1         1 RID       0.002700
     73 HO4         -3.5290     0.2000    -2.7330 ho         1 RID       0.385000
     74 H11         -2.3690     2.1220    -5.2620 h1         1 RID       0.006700
     75 HO3         -5.0390     2.5590    -4.4950 ho         1 RID       0.414000
     76 H35         -4.0600     4.2350    -4.5320 hc         1 RID      -0.006800
     77 H35A        -2.5510     4.4430    -5.3630 hc         1 RID      -0.006800
@<TRIPOS>BOND
     1     1     3 1   
     2     1     5 1   
     3     1    28 1   
     4     2    10 1   
     5     2    15 1   
     6     2    18 1   
     7     3    23 2   
     8     3    30 1   
     9     4     8 1   
    10     4    28 1   
    11     4    29 1   
    12     4    42 1   
    13     5     6 1   
    14     5    43 1   
    15     5    44 1   
    16     6    34 1   
    17     6    45 1   
    18     6    46 1   
    19     7    34 1   
    20     7    36 1   
    21     7    47 1   
    22     7    48 1   
    23     8    49 1   
    24     8    50 1   
    25     8    51 1   
    26     9    31 ar  
    27     9    33 ar  
    28     9    52 1   
    29    10    11 1   
    30    10    53 1   
    31    10    54 1   
    32    11    21 1   
    33    11    55 1   
    34    11    56 1   
    35    12    14 ar  
    36    12    30 ar  
    37    12    57 1   
    38    13    16 ar  
    39    13    25 ar  
    40    13    58 1   
    41    14    31 ar  
    42    14    59 1   
    43    15    20 1   
    44    15    60 1   
    45    15    61 1   
    46    16    26 ar  
    47    16    62 1   
    48    17    18 2   
    49    18    19 2   
    50    18    22 1   
    51    20    21 1   
    52    20    63 1   
    53    20    64 1   
    54    22    23 1   
    55    22    28 2   
    56    23    24 1   
    57    24    25 ar  
    58    24    27 ar  
    59    25    65 1   
    60    26    27 ar  
    61    26    66 1   
    62    27    67 1   
    63    29    68 1   
    64    29    69 1   
    65    29    70 1   
    66    30    33 ar  
    67    31    32 1   
    68    33    71 1   
    69    34    35 1   
    70    34    72 1   
    71    35    73 1   
    72    36    37 1   
    73    36    38 1   
    74    36    74 1   
    75    37    75 1   
    76    38    39 1   
    77    38    76 1   
    78    38    77 1   
    79    39    40 1   
    80    39    41 1   
@<TRIPOS>SUBSTRUCTURE
     1 RID         1 TEMP              0 ****  ****    0 ROOT
