@<TRIPOS>MOLECULE
molecule
   73    75     1     0     0
SMALL
bcc


@<TRIPOS>ATOM
      1 N3           0.0000     0.0000     0.0000 na         1 RIE       0.218300
      2 C4           1.3580     0.0000     0.0000 cc         1 RIE      -0.120600
      3 C5           1.7570     0.0000     1.2940 cd         1 RIE      -0.193600
      4 C6           3.1720    -0.0000     1.8120 c3         1 RIE       0.009600
      5 C7           2.2540    -0.0010    -1.2120 c3         1 RIE      -0.016100
      6 C8           2.4500    -1.4370    -1.7010 c3         1 RIE      -0.101400
      7 C10          3.5510    -2.8660    -3.4280 c3         1 RIE      -0.090400
      8 C13          3.4060     1.2530     2.6580 c3         1 RIE      -0.082100
      9 C15         -1.3100     0.8510    -3.3310 ca         1 RIE      -0.158000
     10 C17         -2.4090     1.2960     7.1040 ca         1 RIE      -0.118000
     11 C20         -3.1010     2.4350     7.4720 ca         1 RIE      -0.131000
     12 C21         -1.8720    -0.8860    -1.2460 ca         1 RIE      -0.096000
     13 C24         -2.6620    -0.8890    -2.3790 ca         1 RIE      -0.158000
     14 C26         -1.4810     2.4660     5.2330 ca         1 RIE      -0.118000
     15 O2           1.4790    -0.0040     4.2070 o          1 RIE      -0.608100
     16 N2          -0.7410     0.0080     4.1270 n          1 RIE      -0.483800
     17 C1          -0.8370     0.0730     5.5880 c3         1 RIE       0.158000
     18 C16         -1.5730    -1.1650     6.1060 c3         1 RIE      -0.106100
     19 C32         -1.5970     1.3120     5.9850 ca         1 RIE      -0.099300
     20 C23         -2.1690     3.6060     5.6050 ca         1 RIE      -0.131000
     21 C29         -2.9810     3.5890     6.7230 ca         1 RIE      -0.132000
     22 C14         -1.9580    -0.0510     3.3140 c3         1 RIE       0.100300
     23 C2           0.5650     0.0010     2.0580 cd         1 RIE       0.261800
     24 C12          3.4000    -1.2450     2.6710 c3         1 RIE      -0.082100
     25 C27         -0.8030    -0.0050    -1.1490 ca         1 RIE       0.000800
     26 C18         -0.5210     0.8600    -2.1980 ca         1 RIE      -0.096000
     27 C30         -2.3820    -0.0210    -3.4220 ca         1 RIE       0.138900
     28 F1          -3.1570    -0.0260    -4.5280 f          1 RIE      -0.136900
     29 N4          -0.4420     0.0000     1.2060 nc         1 RIE      -0.521800
     30 C9           3.4490    -1.4510    -2.8590 c3         1 RIE       0.150100
     31 O4           4.7310    -1.0340    -2.3860 oh         1 RIE      -0.582800
     32 C11          4.4540    -2.8560    -4.6640 c3         1 RIE       0.169100
     33 O3           5.7850    -2.5070    -4.2770 oh         1 RIE      -0.618800
     34 C35          4.4560    -4.2450    -5.3050 c3         1 RIE      -0.210400
     35 C36          5.2460    -4.2030    -6.5880 c          1 RIE       0.897600
     36 O6           5.7540    -3.1700    -6.9520 o          1 RIE      -0.859300
     37 O7           5.3840    -5.3160    -7.3270 o          1 RIE      -0.859300
     38 H6           3.8620    -0.0060     0.9770 hc         1 RIE       0.059700
     39 H7           3.2150     0.4260    -0.9520 hc         1 RIE       0.058200
     40 H7A          1.7980     0.5890    -1.9980 hc         1 RIE       0.058200
     41 H8           1.5010    -1.8360    -2.0380 hc         1 RIE       0.055200
     42 H8A          2.8300    -2.0460    -0.8890 hc         1 RIE       0.055200
     43 H10          2.5640    -3.2160    -3.7050 hc         1 RIE       0.051200
     44 H10A         3.9710    -3.5270    -2.6800 hc         1 RIE       0.051200
     45 H13          2.6060     1.9620     2.4820 hc         1 RIE       0.038033
     46 H13A         3.4240     0.9830     3.7070 hc         1 RIE       0.038033
     47 H13B         4.3530     1.7020     2.3840 hc         1 RIE       0.038033
     48 H15         -1.0920     1.5270    -4.1490 ha         1 RIE       0.152500
     49 H21         -2.0920    -1.5640    -0.4300 ha         1 RIE       0.155500
     50 H24         -3.4990    -1.5730    -2.4530 ha         1 RIE       0.152500
     51 H26         -0.8440     2.4790     4.3570 ha         1 RIE       0.137500
     52 H1           0.1580     0.1070     6.0140 h1         1 RIE       0.103700
     53 H16         -2.6370    -1.0480     5.9400 hc         1 RIE       0.043033
     54 H16A        -1.2190    -2.0420     5.5790 hc         1 RIE       0.043033
     55 H16B        -1.3830    -1.2800     7.1670 hc         1 RIE       0.043033
     56 H23         -2.0760     4.5110     5.0160 ha         1 RIE       0.127000
     57 H29         -3.5220     4.4820     7.0130 ha         1 RIE       0.125000
     58 H14         -2.8260    -0.0450     3.9620 h1         1 RIE       0.045367
     59 H14A        -1.9540    -0.9590     2.7240 h1         1 RIE       0.045367
     60 H14B        -1.9940     0.8090     2.6560 h1         1 RIE       0.045367
     61 H12          2.5810    -1.9390     2.5260 hc         1 RIE       0.038033
     62 H12A         4.3310    -1.7190     2.3810 hc         1 RIE       0.038033
     63 H12B         3.4500    -0.9600     3.7150 hc         1 RIE       0.038033
     64 H18          0.3180     1.5420    -2.1280 ha         1 RIE       0.155500
     65 H9           3.1120    -0.7730    -3.6340 h1         1 RIE       0.021700
     66 HO4          4.9400    -0.1880    -2.7450 ho         1 RIE       0.390000
     67 H11          4.0820    -2.1300    -5.3770 h1         1 RIE       0.027700
     68 HO3          6.2310    -2.1150    -5.0080 ho         1 RIE       0.423000
     69 H35          4.9100    -4.9560    -4.6250 hc         1 RIE       0.038700
     70 H35A         3.4380    -4.5470    -5.5170 hc         1 RIE       0.038700
     71 C3           0.4690     0.0010     3.5320 c          1 RIE       0.611600
     72 H17         -2.5010     0.3910     7.6920 ha         1 RIE       0.137500
     73 H20         -3.7370     2.4210     8.3490 ha         1 RIE       0.127000
@<TRIPOS>BOND
     1     2     1 1
     2     1    29 1
     3     1    25 1
     4     3     2 2
     5     5     2 1
     6     4     3 1
     7     3    23 1
     8    24     4 1
     9     8     4 1
    10     4    38 1
    11     6     5 1
    12     5    39 1
    13     5    40 1
    14    30     6 1
    15     6    41 1
    16     6    42 1
    17    30     7 1
    18     7    32 1
    19     7    43 1
    20     7    44 1
    21     8    45 1
    22     8    46 1
    23     8    47 1
    24    26     9 ar
    25     9    27 ar
    26     9    48 1
    27    11    10 ar
    28    10    19 ar
    29    10    72 1
    30    21    11 ar
    31    11    73 1
    32    25    12 ar
    33    12    13 ar
    34    12    49 1
    35    13    27 ar
    36    13    50 1
    37    20    14 ar
    38    14    19 ar
    39    14    51 1
    40    15    71 2
    41    71    23 1
    42    71    16 1
    43    17    16 1
    44    16    22 1
    45    19    17 1
    46    17    18 1
    47    17    52 1
    48    18    53 1
    49    18    54 1
    50    18    55 1
    51    21    20 ar
    52    20    56 1
    53    21    57 1
    54    22    58 1
    55    22    59 1
    56    22    60 1
    57    23    29 2
    58    24    61 1
    59    24    62 1
    60    24    63 1
    61    25    26 ar
    62    26    64 1
    63    27    28 1
    64    31    30 1
    65    30    65 1
    66    31    66 1
    67    32    34 1
    68    32    33 1
    69    32    67 1
    70    33    68 1
    71    34    35 1
    72    34    69 1
    73    34    70 1
    74    35    36 1
    75    35    37 1
@<TRIPOS>SUBSTRUCTURE
     1 RIE         1 TEMP              0 ****  ****    0 ROOT
