@<TRIPOS>MOLECULE
molecule
   40    40     1     0     0
SMALL
bcc


@<TRIPOS>ATOM
      1 C1           0.0000     0.0000     0.0000 c2         1 RIL      -0.251000
      2 C2           1.3370     0.0000     0.0000 c2         1 RIL      -0.152200
      3 C5           2.1760     0.0000     1.2440 c3         1 RIL      -0.053200
      4 C7           3.1180     1.2060     1.2800 c3         1 RIL      -0.072400
      5 C10          3.9940     1.1860     2.5340 c3         1 RIL      -0.054400
      6 C13          4.9580     2.3650     2.5810 c3         1 RIL      -0.284600
      7 P16          5.9620     2.4190     4.0820 p5         1 RIL       1.191600
      8 O20          5.1430     2.5260     5.3230 o          1 RIL      -0.813500
      9 O21          6.9240     1.1310     3.9910 os         1 RIL      -0.573200
     10 C23          7.8340     0.9600     2.9190 c3         1 RIL       0.224400
     11 C24          8.5890    -0.3370     3.1150 c3         1 RIL       0.095100
     12 C27          9.5870    -0.6370     2.0230 c3         1 RIL       0.094400
     13 O28          7.6960    -1.4530     3.0510 os         1 RIL      -0.393600
     14 C30          8.5150    -2.5490     2.6070 c3         1 RIL       0.313600
     15 O31          9.7770    -2.0480     2.1360 os         1 RIL      -0.430600
     16 C34          8.7710    -3.4910     3.7760 c3         1 RIL      -0.099600
     17 C38          7.7980    -3.2600     1.4670 c3         1 RIL      -0.099600
     18 O1           6.9720     3.6460     3.8090 o          1 RIL      -0.813500
     19 H11         -0.5420    -0.0000    -0.9380 ha         1 RIL       0.105500
     20 H12         -0.5420     0.0000     0.9380 ha         1 RIL       0.105500
     21 H2           1.8530    -0.0000    -0.9530 ha         1 RIL       0.108000
     22 H51          1.5260     0.0320     2.1100 hc         1 RIL       0.045200
     23 H52          2.7640    -0.9100     1.2750 hc         1 RIL       0.045200
     24 H71          3.7530     1.1860     0.4020 hc         1 RIL       0.033700
     25 H72          2.5300     2.1160     1.2720 hc         1 RIL       0.033700
     26 H101         3.3550     1.2190     3.4080 hc         1 RIL       0.039700
     27 H102         4.5640     0.2650     2.5500 hc         1 RIL       0.039700
     28 H131         5.6190     2.3050     1.7250 hc         1 RIL       0.054200
     29 H132         4.3860     3.2820     2.5150 hc         1 RIL       0.054200
     30 H231         8.5330     1.7870     2.9010 h1         1 RIL       0.036200
     31 H232         7.2890     0.9250     1.9830 h1         1 RIL       0.036200
     32 H24          9.0920    -0.3300     4.0750 h1         1 RIL       0.062700
     33 H271        10.5170    -0.1110     2.2020 h1         1 RIL       0.054200
     34 H272         9.1760    -0.3850     1.0530 h1         1 RIL       0.054200
     35 H341         9.3020    -4.3670     3.4240 hc         1 RIL       0.043867
     36 H342         7.8260    -3.7930     4.2110 hc         1 RIL       0.043867
     37 H343         9.3680    -2.9850     4.5250 hc         1 RIL       0.043867
     38 H381         8.4300    -4.0500     1.0800 hc         1 RIL       0.043867
     39 H382         6.8720    -3.6860     1.8330 hc         1 RIL       0.043867
     40 H383         7.5820    -2.5500     0.6780 hc         1 RIL       0.043867
@<TRIPOS>BOND
     1     1     2 2
     2     1    19 1
     3     1    20 1
     4     2     3 1
     5     2    21 1
     6     3     4 1
     7     3    22 1
     8     3    23 1
     9     4     5 1
    10     4    24 1
    11     4    25 1
    12     5     6 1
    13     5    26 1
    14     5    27 1
    15     6     7 1
    16     6    28 1
    17     6    29 1
    18     7     8 1
    19     7     9 1
    20     7    18 1
    21     9    10 1
    22    10    11 1
    23    10    30 1
    24    10    31 1
    25    11    12 1
    26    11    13 1
    27    11    32 1
    28    12    15 1
    29    12    33 1
    30    12    34 1
    31    13    14 1
    32    14    15 1
    33    14    16 1
    34    14    17 1
    35    16    35 1
    36    16    36 1
    37    16    37 1
    38    17    38 1
    39    17    39 1
    40    17    40 1
@<TRIPOS>SUBSTRUCTURE
     1 RIL         1 TEMP              0 ****  ****    0 ROOT
