@<TRIPOS>MOLECULE
RIL
   40    40     1     0     0
SMALL
bcc


@<TRIPOS>ATOM
      1 C1         -1.0920    1.6420    0.7370 c2        1 RIL     -0.253000
      2 C2          0.1030    1.0680    0.6170 c2        1 RIL     -0.143200
      3 C5          1.1660    1.1340    1.6500 c3        1 RIL     -0.059200
      4 C7          2.5330    1.3730    1.0400 c3        1 RIL     -0.066400
      5 C10         3.6090    1.3950    2.1020 c3        1 RIL     -0.070400
      6 C13         4.9800    1.6240    1.5430 c3        1 RIL     -0.340600
      7 P16         6.0600    1.6730    2.8500 p5        1 RIL      1.345600
      8 O20         5.5060    2.4660    3.9680 o         1 RIL     -0.856000
      9 O21         6.0220    0.0760    3.3560 os        1 RIL     -0.581200
     10 C23         6.8820   -0.8090    2.7240 c3        1 RIL      0.184400
     11 C24         7.9810   -1.2740    3.6920 c3        1 RIL      0.098100
     12 C27         9.2510   -0.4210    3.6590 c3        1 RIL      0.098400
     13 O28         8.4180   -2.5940    3.3150 os        1 RIL     -0.454600
     14 C30         9.7520   -2.5480    2.8080 c3        1 RIL      0.345600
     15 O31        10.3060   -1.3210    3.2840 os        1 RIL     -0.459600
     16 C34        10.5440   -3.7120    3.3900 c3        1 RIL     -0.106600
     17 C38         9.7460   -2.5720    1.2830 c3        1 RIL     -0.106600
     18 O1          7.4410    1.8470    2.3350 o         1 RIL     -0.856000
     19 H11        -1.3820    2.2310    1.6160 ha        1 RIL      0.102000
     20 H12        -1.8610    1.5630   -0.0420 ha        1 RIL      0.102000
     21 H2          0.3670    0.4890   -0.2840 ha        1 RIL      0.112000
     22 H51         1.1790    0.1600    2.2130 hc        1 RIL      0.049700
     23 H52         0.9450    1.9410    2.3980 hc        1 RIL      0.049700
     24 H71         2.7590    0.5690    0.2920 hc        1 RIL      0.029200
     25 H72         2.5320    2.3480    0.4860 hc        1 RIL      0.029200
     26 H101        3.4000    2.2010    2.8580 hc        1 RIL      0.062200
     27 H102        3.6190    0.4210    2.6630 hc        1 RIL      0.062200
     28 H131        5.0180    2.5830    0.9730 hc        1 RIL      0.060200
     29 H132        5.2560    0.8170    0.8240 hc        1 RIL      0.060200
     30 H231        6.2910   -1.7200    2.4170 h1        1 RIL      0.029200
     31 H232        7.3460   -0.3400    1.8120 h1        1 RIL      0.029200
     32 H24         7.5590   -1.3730    4.7260 h1        1 RIL      0.075700
     33 H271        9.5260   -0.0230    4.6680 h1        1 RIL      0.086700
     34 H272        9.2030    0.4110    2.9060 h1        1 RIL      0.086700
     35 H341       10.5340   -3.6580    4.5040 hc        1 RIL      0.042367
     36 H342       10.0820   -4.6720    3.0650 hc        1 RIL      0.042367
     37 H343       11.5970   -3.6580    3.0300 hc        1 RIL      0.042367
     38 H381        9.1360   -1.7190    0.9000 hc        1 RIL      0.042367
     39 H382        9.3040   -3.5300    0.9250 hc        1 RIL      0.042367
     40 H383       10.7900   -2.4740    0.9040 hc        1 RIL      0.042367
@<TRIPOS>BOND
     1    1    2 2   
     2    1   19 1   
     3    1   20 1   
     4    2    3 1   
     5    2   21 1   
     6    3    4 1   
     7    3   22 1   
     8    3   23 1   
     9    4    5 1   
    10    4   24 1   
    11    4   25 1   
    12    5    6 1   
    13    5   26 1   
    14    5   27 1   
    15    6    7 1   
    16    6   28 1   
    17    6   29 1   
    18    7    8 1   
    19    7    9 1   
    20    7   18 1   
    21    9   10 1   
    22   10   11 1   
    23   10   30 1   
    24   10   31 1   
    25   11   12 1   
    26   11   13 1   
    27   11   32 1   
    28   12   15 1   
    29   12   33 1   
    30   12   34 1   
    31   13   14 1   
    32   14   15 1   
    33   14   16 1   
    34   14   17 1   
    35   16   35 1   
    36   16   36 1   
    37   16   37 1   
    38   17   38 1   
    39   17   39 1   
    40   17   40 1   
@<TRIPOS>SUBSTRUCTURE
     1 RIL         1 TEMP              0 ****  ****    0 ROOT
