@<TRIPOS>MOLECULE
molecule
   35    37     1     0     0
SMALL
bcc


@<TRIPOS>ATOM
      1 CA           0.0000     0.0000     0.0000 c3         1 RIM      -0.122100
      2 CB           1.5300     0.0000     0.0000 c3         1 RIM       0.106500
      3 NC           2.0200     0.0000     1.3850 nz         1 RIM      -0.811600
      4 CD           2.0400    -1.2490    -0.7220 c3         1 RIM      -0.085000
      5 CE1          1.5300    -1.2480    -2.1640 c3         1 RIM      -0.070400
      6 CE2          3.5700    -1.2480    -0.7230 c3         1 RIM      -0.070400
      7 CE3          1.5300    -2.4980    -0.0010 c3         1 RIM      -0.070400
      8 CF1          2.0400    -2.4970    -2.8860 c3         1 RIM      -0.060700
      9 CF2          4.0800    -2.4970    -1.4450 c3         1 RIM      -0.060700
     10 CF3          2.0410    -3.7470    -0.7240 c3         1 RIM      -0.060700
     11 CG1          3.5700    -2.4960    -2.8870 c3         1 RIM      -0.073067
     12 CG2          3.5700    -3.7460    -0.7240 c3         1 RIM      -0.073067
     13 CG3          1.5300    -3.7460    -2.1660 c3         1 RIM      -0.073067
     14 HA1         -0.3610     0.8840     0.5110 hc         1 RIM       0.075700
     15 HA2         -0.3610     0.0010    -1.0210 hc         1 RIM       0.075700
     16 HA3         -0.3610    -0.8850     0.5100 hc         1 RIM       0.075700
     17 HB           1.8910     0.8850    -0.5100 hx         1 RIM       0.112700
     18 HNC1         3.0200    -0.0210     1.3850 hn         1 RIM       0.454133
     19 HNC2         1.7030     0.8280     1.8500 hn         1 RIM       0.454133
     20 HE11         1.8900    -0.3630    -2.6750 hc         1 RIM       0.041700
     21 HE12         0.4460    -1.2480    -2.1640 hc         1 RIM       0.041700
     22 HE21         3.9300    -0.3630    -1.2340 hc         1 RIM       0.041700
     23 HE22         3.9320    -1.2480     0.2980 hc         1 RIM       0.041700
     24 HE31         1.8920    -2.4980     1.0200 hc         1 RIM       0.041700
     25 HE32         0.4470    -2.4980    -0.0010 hc         1 RIM       0.041700
     26 HF1          1.6780    -2.4960    -3.9070 hc         1 RIM       0.073700
     27 HF2          5.1630    -2.4970    -1.4450 hc         1 RIM       0.073700
     28 HF3          1.6800    -4.6320    -0.2140 hc         1 RIM       0.073700
     29 HG11         3.9310    -3.3800    -3.3990 hc         1 RIM       0.058367
     30 HG12         3.9300    -1.6110    -3.3980 hc         1 RIM       0.058367
     31 HG21         3.9310    -4.6310    -1.2340 hc         1 RIM       0.058367
     32 HG22         3.9310    -3.7460     0.2980 hc         1 RIM       0.058367
     33 HG31         1.8900    -4.6300    -2.6770 hc         1 RIM       0.058367
     34 HG32         0.4470    -3.7450    -2.1650 hc         1 RIM       0.058367
     35 HC3          1.6490    -0.7930     1.8700 hn         1 RIM       0.454133
@<TRIPOS>BOND
     1     1     2 1
     2     1    14 1
     3     1    15 1
     4     1    16 1
     5     2     4 1
     6     2     3 1
     7     2    17 1
     8     3    18 1
     9     3    19 1
    10     4     6 1
    11     4     5 1
    12     4     7 1
    13     5     8 1
    14     5    20 1
    15     5    21 1
    16     6     9 1
    17     6    22 1
    18     6    23 1
    19     7    10 1
    20     7    24 1
    21     7    25 1
    22     8    11 1
    23     8    13 1
    24     8    26 1
    25     9    11 1
    26     9    12 1
    27     9    27 1
    28    10    12 1
    29    10    13 1
    30    10    28 1
    31    11    29 1
    32    11    30 1
    33    12    31 1
    34    12    32 1
    35    13    33 1
    36    13    34 1
    37    35     3 1
@<TRIPOS>SUBSTRUCTURE
     1 RIM         1 TEMP              0 ****  ****    0 ROOT
