@<TRIPOS>MOLECULE
RIN
   40    40     1     0     0
SMALL
bcc


@<TRIPOS>ATOM
      1 N            0.0000     0.0000     0.0000 nz         1 RIN       0.078400
      2 CA           1.4680     0.0000     0.0000 c3         1 RIN      -0.169500
      3 CB           1.9800     0.0000     1.4420 c3         1 RIN      -0.031400
      4 CG           3.4270     0.4940     1.4700 c3         1 RIN      -0.028400
      5 CD           4.0390     0.2020     2.8400 c3         1 RIN      -0.030400
      6 CE           5.2770    -0.6800     2.6690 c3         1 RIN      -0.037400
      7 CZ           4.9670    -2.0960     3.1570 c3         1 RIN      -0.035400
      8 C5           5.5810    -3.1130     2.1960 c3         1 RIN      -0.037400
      9 C4           4.5170    -4.1320     1.7820 c3         1 RIN      -0.032400
     10 C3           4.2300    -3.9940     0.2860 c3         1 RIN      -0.037400
     11 C2           2.8370    -4.5460    -0.0210 c3         1 RIN      -0.039400
     12 C1           2.1250    -3.6140    -1.0020 c3         1 RIN       0.024000
     13 N1           1.5890    -2.4560    -0.2520 ns         1 RIN      -0.179900
     14 C            1.9700    -1.2290    -0.7100 c          1 RIN       0.537100
     15 O            2.7010    -1.1300    -1.6740 o          1 RIN      -0.537100
     16 H           -0.3340    -0.6480     0.6860 hn         1 RIN       0.226133
     17 HN2         -0.3340    -0.2700    -0.9040 hn         1 RIN       0.226133
     18 HA           1.8290     0.8850    -0.5110 hx         1 RIN       0.120700
     19 HB1          1.9330    -1.0060     1.8410 hc         1 RIN       0.037200
     20 HB2          1.3620     0.6560     2.0430 hc         1 RIN       0.037200
     21 HG1          3.4480     1.5610     1.2850 hc         1 RIN       0.036200
     22 HG2          3.9980    -0.0160     0.7040 hc         1 RIN       0.036200
     23 HD1          4.3230     1.1340     3.3150 hc         1 RIN       0.026200
     24 HD2          3.3130    -0.3110     3.4580 hc         1 RIN       0.026200
     25 HE1          6.0960    -0.2690     3.2480 hc         1 RIN       0.029700
     26 HE2          5.5550    -0.7120     1.6220 hc         1 RIN       0.029700
     27 HZ1          5.3850    -2.2370     4.1470 hc         1 RIN       0.018200
     28 HZ2          3.8930    -2.2380     3.1960 hc         1 RIN       0.018200
     29 H51          5.9510    -2.6010     1.3160 hc         1 RIN       0.027700
     30 H52          6.4000    -3.6250     2.6860 hc         1 RIN       0.027700
     31 H41          4.8760    -5.1330     1.9900 hc         1 RIN       0.019200
     32 H42          3.6080    -3.9520     2.3420 hc         1 RIN       0.019200
     33 H31          4.9710    -4.5500    -0.2760 hc         1 RIN       0.024700
     34 H32          4.2740    -2.9490     0.0050 hc         1 RIN       0.024700
     35 H21          2.2650    -4.6110     0.8970 hc         1 RIN       0.030700
     36 H22          2.9280    -5.5320    -0.4600 hc         1 RIN       0.030700
     37 H11          2.8270    -3.2690    -1.7510 h1         1 RIN       0.049700
     38 H12          1.3120    -4.1440    -1.4830 h1         1 RIN       0.049700
     39 HN1          0.7480    -2.5510     0.2820 hn         1 RIN       0.158500
     40 HN3         -0.3340     0.9240     0.1930 hn         1 RIN       0.226133
@<TRIPOS>BOND
     1     1     2 1   
     2     1    16 1   
     3     1    17 1   
     4     1    40 1   
     5     2     3 1   
     6     2    14 1   
     7     2    18 1   
     8     3     4 1   
     9     3    19 1   
    10     3    20 1   
    11     4     5 1   
    12     4    21 1   
    13     4    22 1   
    14     5     6 1   
    15     5    23 1   
    16     5    24 1   
    17     6     7 1   
    18     6    25 1   
    19     6    26 1   
    20     7     8 1   
    21     7    27 1   
    22     7    28 1   
    23     8     9 1   
    24     8    29 1   
    25     8    30 1   
    26     9    10 1   
    27     9    31 1   
    28     9    32 1   
    29    10    11 1   
    30    10    33 1   
    31    10    34 1   
    32    11    12 1   
    33    11    35 1   
    34    11    36 1   
    35    12    13 1   
    36    12    37 1   
    37    12    38 1   
    38    13    14 1   
    39    13    39 1   
    40    14    15 2   
@<TRIPOS>SUBSTRUCTURE
     1 RIN         1 TEMP              0 ****  ****    0 ROOT
