@<TRIPOS>MOLECULE
molecule
   24    24     1     0     0
SMALL
bcc


@<TRIPOS>ATOM
      1 O12          0.0000     0.0000     0.0000 o          1 RIS      -0.919833
      2 P9           1.6170     0.0000     0.0000 p5         1 RIS       1.046700
      3 O11          2.2570     0.0000     1.3560 o          1 RIS      -0.919833
      4 O10          1.9910    -1.2660    -0.9320 o          1 RIS      -0.919833
      5 C8           2.0290     1.4670    -1.0490 c3         1 RIS      -0.051600
      6 O13          3.4560     1.4200    -1.0280 oh         1 RIS      -0.706800
      7 P14          1.6250     1.4900    -2.8290 p5         1 RIS       1.046700
      8 O16          0.0110     1.3940    -2.8440 o          1 RIS      -0.919833
      9 O15          2.0820     0.0290    -3.3470 o          1 RIS      -0.919833
     10 O17          2.2060     2.6330    -3.6070 o          1 RIS      -0.919833
     11 C7           1.5420     2.7260    -0.2870 c3         1 RIS       0.007900
     12 C2           2.0010     4.0610    -0.8160 ca         1 RIS      -0.077600
     13 C1           3.1740     4.6260    -0.3580 ca         1 RIS      -0.132000
     14 C6           3.5720     5.8590    -0.8640 ca         1 RIS      -0.290300
     15 C5           2.7610     6.4630    -1.8110 ca         1 RIS       0.294200
     16 N4           1.6090     5.9270    -2.2730 nb         1 RIS      -0.744000
     17 C3           1.2550     4.7290    -1.7580 ca         1 RIS       0.506200
     18 H13          3.7510     0.6190    -1.4270 ho         1 RIS       0.414000
     19 HC71         1.8750     2.6430     0.7410 hc         1 RIS       0.035700
     20 HC72         0.4590     2.7200    -0.2920 hc         1 RIS       0.035700
     21 HC1          3.8610     4.0380     0.2390 ha         1 RIS       0.139000
     22 HC6          4.3250     6.4400    -0.3460 ha         1 RIS       0.057000
     23 HC5          3.0690     7.4240    -2.2050 h4         1 RIS      -0.073900
     24 HC3          0.2050     4.7680    -2.0200 h4         1 RIS       0.011100
@<TRIPOS>BOND
     1     1     2 1
     2     2     3 1
     3     2     4 1
     4     2     5 1
     5     5     6 1
     6     5     7 1
     7     5    11 1
     8     6    18 1
     9     7     8 1
    10     7     9 1
    11     7    10 1
    12    11    12 1
    13    11    19 1
    14    11    20 1
    15    12    13 ar
    16    12    17 ar
    17    13    14 ar
    18    13    21 1
    19    14    15 ar
    20    14    22 1
    21    15    16 ar
    22    15    23 1
    23    16    17 ar
    24    17    24 1
@<TRIPOS>SUBSTRUCTURE
     1 RIS         1 TEMP              0 ****  ****    0 ROOT
