@<TRIPOS>MOLECULE
RIS
   24    24     1     0     0
SMALL
bcc


@<TRIPOS>ATOM
      1 O12         1.0180    0.4410    1.1750 o         1 RIS     -0.931000
      2 P9          2.1400    0.5200    0.1810 p5        1 RIS      1.422600
      3 O11         3.2440    1.4880    0.9780 oh        1 RIS     -0.822400
      4 O10         2.9220   -0.7510    0.0510 o         1 RIS     -0.931000
      5 C8          1.7560    1.4120   -1.2210 c3        1 RIS     -0.254600
      6 O13         2.9730    1.4240   -1.9450 oh        1 RIS     -0.638800
      7 P14         0.5150    1.0440   -2.8060 p5        1 RIS      1.214700
      8 O16         0.5290   -0.4310   -3.1080 o         1 RIS     -0.937833
      9 O15         1.1980    1.8730   -3.8740 o         1 RIS     -0.937833
     10 O17        -0.8670    1.5450   -2.4690 o         1 RIS     -0.937833
     11 C7          1.2520    2.7840   -0.8230 c3        1 RIS     -0.035200
     12 C2          2.1140    4.0100   -0.9330 ce        1 RIS     -0.212900
     13 C1          2.3690    4.8310    0.1910 c1        1 RIS     -0.285800
     14 C6          3.0820    6.0070   -0.0280 ce        1 RIS     -0.405700
     15 C5          3.5200    6.3550   -1.3180 ce        1 RIS      0.186200
     16 N4          3.2770    5.5930   -2.4010 n1        1 RIS     -0.605800
     17 C3          2.5800    4.4450   -2.1920 ce        1 RIS      0.240200
     18 H13         2.8160    1.8740   -2.7920 ho        1 RIS      0.400000
     19 HC71        0.3260    3.0250   -1.4280 hc        1 RIS      0.045200
     20 HC72        0.9100    2.7150    0.2520 hc        1 RIS      0.045200
     21 HC1         3.0990    2.4130    0.8150 ho        1 RIS      0.418000
     22 HC6         3.3130    6.6820    0.8090 ha        1 RIS      0.024000
     23 HC5         4.0880    7.2850   -1.5090 h4        1 RIS     -0.105200
     24 HC3         2.3730    3.8450   -3.1020 h4        1 RIS      0.045800
@<TRIPOS>BOND
     1    1    2 1   
     2    2    3 1   
     3    2    4 1   
     4    2    5 1   
     5    3   21 1   
     6    5    6 1   
     7    5    7 1   
     8    5   11 1   
     9    6   18 1   
    10    7    8 1   
    11    7    9 1   
    12    7   10 1   
    13   11   12 1   
    14   11   19 1   
    15   11   20 1   
    16   12   13 2   
    17   12   17 1   
    18   13   14 2   
    19   14   15 1   
    20   14   22 1   
    21   15   16 2   
    22   15   23 1   
    23   16   17 2   
    24   17   24 1   
@<TRIPOS>SUBSTRUCTURE
     1 RIS         1 TEMP              0 ****  ****    0 ROOT
