@<TRIPOS>MOLECULE
molecule
   47    50     1     0     0
SMALL
bcc


@<TRIPOS>ATOM
      1 C1           0.0000     0.0000     0.0000 c3         1 RIV       0.085000
      2 N2           1.5040     0.0000     0.0000 n          1 RIV      -0.432000
      3 C3          -0.5950    -0.3030     1.3920 c3         1 RIV       0.120400
      4 C4           2.2300     0.0000     1.2020 c          1 RIV       0.680500
      5 O5           0.1280     0.4620     2.3670 os         1 RIV      -0.410600
      6 C6           1.4830     0.0040     2.5340 c3         1 RIV       0.071400
      7 C7           3.5340     0.0890    -3.7530 ca         1 RIV       0.105600
      8 C8           3.1970     1.2760    -3.0840 ca         1 RIV      -0.158500
      9 C9           3.1880    -1.1590    -3.1470 ca         1 RIV      -0.158500
     10 C10          2.5390     1.2380    -1.8580 ca         1 RIV      -0.093000
     11 C11          2.5120    -1.1970    -1.9080 ca         1 RIV      -0.093000
     12 C12          2.1850     0.0060    -1.2540 ca         1 RIV       0.027600
     13 O13          3.4490    -0.0020     1.1900 o          1 RIV      -0.608500
     14 N14          4.2040     0.1610    -5.0310 n          1 RIV      -0.438000
     15 C15          4.6220    -0.9040    -5.8310 c          1 RIV       0.829600
     16 C16          4.5620     1.4150    -5.7380 c3         1 RIV       0.072000
     17 O17          5.1970    -0.5130    -7.0000 os         1 RIV      -0.365900
     18 C18          5.3340     0.9070    -6.9700 c3         1 RIV       0.089100
     19 O19          4.4850    -2.0770    -5.5340 o          1 RIV      -0.601500
     20 C20          4.8530     1.5670    -8.2940 c3         1 RIV       0.111000
     21 N21          3.4230     1.3140    -8.7070 ns         1 RIV      -0.601900
     22 C22          2.4680     2.3540    -8.6500 c          1 RIV       0.725700
     23 S23         -0.1660     3.2010    -8.8300 ss         1 RIV       0.346200
     24 C24         -1.3350     2.4110    -9.5690 cc         1 RIV      -0.110700
     25 C25          1.0530     2.1560    -9.1100 cc         1 RIV      -0.274700
     26 C26         -0.8110     1.2250   -10.1090 cd         1 RIV      -0.169000
     27 C27          0.5600     1.0800    -9.8480 cd         1 RIV      -0.125000
     28 O28          2.7980     3.4520    -8.2390 o          1 RIV      -0.607100
     29 H11C        -0.3480     0.9740    -0.3230 h1         1 RIV       0.051700
     30 H12C        -0.3480    -0.7510    -0.6990 h1         1 RIV       0.051700
     31 H31C        -1.6400    -0.0210     1.4110 h1         1 RIV       0.059700
     32 H32C        -0.4920    -1.3600     1.6100 h1         1 RIV       0.059700
     33 H61C         1.9960     0.6600     3.2260 h1         1 RIV       0.080700
     34 H62C         1.4690    -1.0030     2.9350 h1         1 RIV       0.080700
     35 H8           3.4540     2.2320    -3.5260 ha         1 RIV       0.154500
     36 H9           3.4390    -2.0860    -3.6480 ha         1 RIV       0.154500
     37 H10          2.2890     2.1660    -1.3590 ha         1 RIV       0.143000
     38 H11          2.2550    -2.1480    -1.4580 ha         1 RIV       0.143000
     39 H161         5.2730     1.9420    -5.1120 h1         1 RIV       0.084200
     40 H162         3.6390     1.8530    -6.0980 h1         1 RIV       0.084200
     41 H18          6.3820     1.1420    -6.8310 h1         1 RIV       0.076700
     42 H201         5.4960     1.2170    -9.0920 h1         1 RIV       0.074200
     43 H202         4.9870     2.6380    -8.2000 h1         1 RIV       0.074200
     44 H21          3.1520     0.4060    -9.0300 hn         1 RIV       0.327500
     45 H26         -1.3990     0.5050   -10.6660 ha         1 RIV       0.166000
     46 H27          1.1590     0.2380   -10.1740 ha         1 RIV       0.158000
     47 Cl          -3.0170     2.9430    -9.6730 cl         1 RIV      -0.044400
@<TRIPOS>BOND
     1     1     2 1
     2     1     3 1
     3     2     4 1
     4     2    12 1
     5     3     5 1
     6     4     6 1
     7     4    13 2
     8     5     6 1
     9     7     8 ar
    10     7     9 ar
    11     7    14 1
    12     8    10 ar
    13     9    11 ar
    14    10    12 ar
    15    11    12 ar
    16    14    15 1
    17    14    16 1
    18    15    17 1
    19    15    19 2
    20    16    18 1
    21    17    18 1
    22    18    20 1
    23    20    21 1
    24    21    22 1
    25    22    25 1
    26    22    28 2
    27    23    24 1
    28    23    25 1
    29    24    26 2
    30    24    47 1
    31    25    27 2
    32    26    27 1
    33     1    29 1
    34     1    30 1
    35     3    31 1
    36     3    32 1
    37     6    33 1
    38     6    34 1
    39     8    35 1
    40     9    36 1
    41    10    37 1
    42    11    38 1
    43    16    39 1
    44    16    40 1
    45    18    41 1
    46    20    42 1
    47    20    43 1
    48    21    44 1
    49    26    45 1
    50    27    46 1
@<TRIPOS>SUBSTRUCTURE
     1 RIV         1 TEMP              0 ****  ****    0 ROOT
