@<TRIPOS>MOLECULE
molecule
   28    28     1     0     0
SMALL
bcc


@<TRIPOS>ATOM
      1 C1           0.0000     0.0000     0.0000 ca         1 RJ1      -0.162300
      2 C2           1.3830     0.0000     0.0000 ca         1 RJ1      -0.072000
      3 C3           2.0780     0.0000     1.1950 ca         1 RJ1      -0.104000
      4 C4           1.3910    -0.0010     2.3950 ca         1 RJ1       0.026400
      5 C5           0.0030    -0.0020     2.3990 ca         1 RJ1       0.129600
      6 C6          -0.6920    -0.0020     1.1960 ca         1 RJ1      -0.072000
      7 Cl7          2.2650    -0.0020     3.8960 cl         1 RJ1      -0.092400
      8 C8          -0.7530     0.0060    -1.3040 c3         1 RJ1       0.678200
      9 F9          -1.9780    -0.6490    -1.1400 f          1 RJ1      -0.216633
     10 F10         -0.9810     1.3270    -1.7050 f          1 RJ1      -0.216633
     11 F11          0.0010    -0.6530    -2.2820 f          1 RJ1      -0.216633
     12 N12         -0.6960    -0.0030     3.6110 nu         1 RJ1      -0.738600
     13 C13         -1.8890     0.6740     3.7180 c2         1 RJ1       0.832100
     14 N14         -2.5260     0.7590     4.9390 nu         1 RJ1      -0.786200
     15 C15         -2.0270     0.0750     6.0270 c2         1 RJ1       0.833100
     16 N16         -2.7250     0.0610     7.2110 nz         1 RJ1      -0.825600
     17 N17         -2.4180     1.2340     2.6680 n2         1 RJ1      -0.842100
     18 N18         -0.8920    -0.5590     5.9340 n2         1 RJ1      -1.021100
     19 H2           1.9230     0.0010    -0.9390 ha         1 RJ1       0.167000
     20 H3           3.1610     0.0000     1.1920 ha         1 RJ1       0.167000
     21 H6          -1.7760    -0.0020     1.1950 ha         1 RJ1       0.184000
     22 HN12        -0.3320    -0.5030     4.3970 hn         1 RJ1       0.496800
     23 HN14        -3.3260     1.3510     5.0450 hn         1 RJ1       0.461800
     24 HN16        -2.2110    -0.4570     7.8960 hn         1 RJ1       0.474800
     25 HN1A        -3.6170    -0.3700     7.0670 hn         1 RJ1       0.474800
     26 HN17        -3.2850     1.7260     2.7460 hn         1 RJ1       0.423400
     27 HN18        -0.8760    -1.5160     5.6420 hn         1 RJ1       0.541400
     28 H163        -2.8290     0.9980     7.5480 hn         1 RJ1       0.474800
@<TRIPOS>BOND
     1     8     1 1
     2     1     6 ar
     3     1     2 ar
     4     2     3 ar
     5     2    19 1
     6     3     4 ar
     7     3    20 1
     8     5     4 ar
     9     4     7 1
    10     6     5 ar
    11     5    12 1
    12     6    21 1
    13    11     8 1
    14     9     8 1
    15     8    10 1
    16    12    13 1
    17    12    22 1
    18    13    17 2
    19    13    14 1
    20    14    15 1
    21    14    23 1
    22    18    15 2
    23    15    16 1
    24    16    24 1
    25    16    25 1
    26    17    26 1
    27    18    27 1
    28    28    16 1
@<TRIPOS>SUBSTRUCTURE
     1 RJ1         1 TEMP              0 ****  ****    0 ROOT
