@<TRIPOS>MOLECULE
RJ1
   28    28     1     0     0
SMALL
bcc


@<TRIPOS>ATOM
      1 C1           0.0000     0.0000     0.0000 ca         1 RJ1      -0.163300
      2 C2           1.3830     0.0000     0.0000 ca         1 RJ1      -0.036000
      3 C3           2.0780     0.0000     1.1950 ca         1 RJ1      -0.059000
      4 C4           1.3910    -0.0010     2.3950 ca         1 RJ1      -0.039600
      5 C5           0.0030    -0.0020     2.3990 ca         1 RJ1       0.005600
      6 C6          -0.6920    -0.0020     1.1960 ca         1 RJ1      -0.126000
      7 Cl7          2.2650    -0.0020     3.8960 cl         1 RJ1      -0.001400
      8 C8          -0.7530     0.0060    -1.3040 c3         1 RJ1       0.640200
      9 F9          -1.9780    -0.6490    -1.1400 f          1 RJ1      -0.200633
     10 F10         -0.9810     1.3270    -1.7050 f          1 RJ1      -0.200633
     11 F11          0.0010    -0.6530    -2.2820 f          1 RJ1      -0.200633
     12 N12         -0.6960    -0.0030     3.6110 nu         1 RJ1      -0.388600
     13 C13         -1.8890     0.6740     3.7180 c2         1 RJ1       0.489100
     14 N14         -2.5260     0.7590     4.9390 nu         1 RJ1      -0.244200
     15 C15         -2.0270     0.0750     6.0270 c2         1 RJ1       0.246100
     16 N16         -2.7250     0.0610     7.2110 nz         1 RJ1       0.126400
     17 N17         -2.4180     1.2340     2.6680 n2         1 RJ1      -0.789100
     18 N18         -0.8920    -0.5590     5.9340 n2         1 RJ1      -0.617100
     19 H2           1.9230     0.0010    -0.9390 ha         1 RJ1       0.134000
     20 H3           3.1610     0.0000     1.1920 ha         1 RJ1       0.132000
     21 H6          -1.7760    -0.0020     1.1950 ha         1 RJ1       0.158000
     22 HN12        -0.3460    -0.5260     4.3890 hn         1 RJ1       0.361800
     23 HN14        -3.3300     1.3460     5.0430 hn         1 RJ1       0.307800
     24 HN16        -2.5490     0.9090     7.7120 hn         1 RJ1       0.232800
     25 HN1A        -2.4320    -0.7200     7.7630 hn         1 RJ1       0.232800
     26 HN17        -1.9560     1.1710     1.7820 hn         1 RJ1       0.409400
     27 HN18        -0.5290    -1.0560     6.7230 hn         1 RJ1       0.356400
     28 H163        -3.7050    -0.0150     7.0190 hn         1 RJ1       0.232800
@<TRIPOS>BOND
     1     1     2 ar  
     2     1     6 ar  
     3     1     8 1   
     4     2     3 ar  
     5     2    19 1   
     6     3     4 ar  
     7     3    20 1   
     8     4     5 ar  
     9     4     7 1   
    10     5     6 ar  
    11     5    12 1   
    12     6    21 1   
    13     8     9 1   
    14     8    10 1   
    15     8    11 1   
    16    12    13 1   
    17    12    22 1   
    18    13    14 1   
    19    13    17 2   
    20    14    15 1   
    21    14    23 1   
    22    15    16 1   
    23    15    18 2   
    24    16    24 1   
    25    16    25 1   
    26    16    28 1   
    27    17    26 1   
    28    18    27 1   
@<TRIPOS>SUBSTRUCTURE
     1 RJ1         1 TEMP              0 ****  ****    0 ROOT
