@<TRIPOS>MOLECULE
molecule
   33    33     1     0     0
SMALL
bcc


@<TRIPOS>ATOM
      1 C1           0.0000     0.0000     0.0000 ca         1 RJ6       0.222100
      2 C2           1.3870     0.0000     0.0000 ca         1 RJ6      -0.330000
      3 C3           2.0810     0.0000     1.2010 ca         1 RJ6       0.222100
      4 C4           1.3880     0.0010     2.4020 ca         1 RJ6      -0.264000
      5 C5          -0.0010     0.0010     2.4020 ca         1 RJ6       0.206600
      6 C6          -0.6940     0.0060     1.2000 ca         1 RJ6      -0.264000
      7 O7          -0.6780    -0.0010    -1.1780 os         1 RJ6      -0.322900
      8 C8           0.1010    -0.0010    -2.3760 c3         1 RJ6       0.125200
      9 O9           3.4400    -0.0020     1.2010 os         1 RJ6      -0.322900
     10 C10          4.0880    -0.0030    -0.0730 c3         1 RJ6       0.125200
     11 N11         -0.7000     0.0020     3.6140 nu         1 RJ6      -0.724600
     12 C12         -0.2090    -0.6980     4.6920 c2         1 RJ6       0.818100
     13 N13          0.9050    -1.4990     4.5450 nu         1 RJ6      -0.777200
     14 C14          1.4000    -2.1960     5.6280 c2         1 RJ6       0.825100
     15 N15          2.5550    -2.9320     5.5010 nz         1 RJ6      -0.824600
     16 N16         -0.7960    -0.6050     5.8510 n2         1 RJ6      -0.855100
     17 N17          0.7760    -2.1560     6.7700 n2         1 RJ6      -1.026100
     18 H2           1.9290    -0.0030    -0.9380 ha         1 RJ6       0.158000
     19 H4           1.9290    -0.0000     3.3400 ha         1 RJ6       0.147000
     20 H6          -1.7770     0.0060     1.1990 ha         1 RJ6       0.147000
     21 H8          -0.5580     0.0000    -3.2360 h1         1 RJ6       0.052700
     22 H8A          0.7250    -0.8860    -2.4010 h1         1 RJ6       0.052700
     23 H8B          0.7260     0.8830    -2.4000 h1         1 RJ6       0.052700
     24 H10          3.7970    -0.8870    -0.6260 h1         1 RJ6       0.052700
     25 H10A         5.1620    -0.0030     0.0690 h1         1 RJ6       0.052700
     26 H10B         3.7970     0.8820    -0.6270 h1         1 RJ6       0.052700
     27 HN11        -1.5620     0.5040     3.6940 hn         1 RJ6       0.506800
     28 HN13         1.2800    -1.6680     3.6320 hn         1 RJ6       0.468800
     29 HN15         2.4870    -3.5230     4.6950 hn         1 RJ6       0.469800
     30 HN1A         3.3350    -2.3150     5.3970 hn         1 RJ6       0.469800
     31 HN16        -0.4390    -1.1150     6.6350 hn         1 RJ6       0.475400
     32 HN17         1.0020    -1.4480     7.4400 hn         1 RJ6       0.537400
     33 H153         2.6990    -3.4730     6.3310 hn         1 RJ6       0.469800
@<TRIPOS>BOND
     1     6     1 ar
     2     1     2 ar
     3     1     7 1
     4     3     2 ar
     5     2    18 1
     6     4     3 ar
     7     3     9 1
     8     5     4 ar
     9     4    19 1
    10    11     5 1
    11     5     6 ar
    12     6    20 1
    13     8     7 1
    14     8    21 1
    15     8    22 1
    16     8    23 1
    17    10     9 1
    18    10    24 1
    19    10    25 1
    20    10    26 1
    21    12    11 1
    22    11    27 1
    23    13    12 1
    24    12    16 2
    25    14    13 1
    26    13    28 1
    27    17    14 2
    28    14    15 1
    29    15    29 1
    30    15    30 1
    31    16    31 1
    32    17    32 1
    33    33    15 1
@<TRIPOS>SUBSTRUCTURE
     1 RJ6         1 TEMP              0 ****  ****    0 ROOT
