@<TRIPOS>MOLECULE
RJ6
   33    33     1     0     0
SMALL
bcc


@<TRIPOS>ATOM
      1 C1           0.0000     0.0000     0.0000 ca         1 RJ6       0.240600
      2 C2           1.3870     0.0000     0.0000 ca         1 RJ6      -0.334000
      3 C3           2.0810     0.0000     1.2010 ca         1 RJ6       0.240600
      4 C4           1.3880     0.0010     2.4020 ca         1 RJ6      -0.251000
      5 C5          -0.0010     0.0010     2.4020 ca         1 RJ6       0.066600
      6 C6          -0.6940     0.0060     1.2000 ca         1 RJ6      -0.251000
      7 O7          -0.6780    -0.0010    -1.1780 os         1 RJ6      -0.307900
      8 C8           0.1010    -0.0010    -2.3760 c3         1 RJ6       0.246200
      9 O9           3.4400    -0.0020     1.2010 os         1 RJ6      -0.307900
     10 C10          4.0880    -0.0030    -0.0730 c3         1 RJ6       0.246200
     11 N11         -0.7000     0.0020     3.6140 nu         1 RJ6      -0.322600
     12 C12         -0.2090    -0.6980     4.6920 c2         1 RJ6       0.493100
     13 N13          0.9050    -1.4990     4.5450 nu         1 RJ6      -0.338200
     14 C14          1.4000    -2.1960     5.6280 c2         1 RJ6       0.206100
     15 N15          2.5550    -2.9320     5.5010 nz         1 RJ6       0.124400
     16 N16         -0.7960    -0.6050     5.8510 n2         1 RJ6      -0.714100
     17 N17          0.7760    -2.1560     6.7700 n2         1 RJ6      -0.473100
     18 H2           1.9290    -0.0030    -0.9380 ha         1 RJ6       0.152000
     19 H4           1.9290    -0.0000     3.3400 ha         1 RJ6       0.127000
     20 H6          -1.7770     0.0060     1.1990 ha         1 RJ6       0.127000
     21 H8          -0.5580    -0.0130    -3.2350 h1         1 RJ6       0.005367
     22 H8A          0.7170     0.8900    -2.4060 h1         1 RJ6       0.005367
     23 H8B          0.7350    -0.8790    -2.3950 h1         1 RJ6       0.005367
     24 H10          3.7950     0.8800    -0.6270 h1         1 RJ6       0.005367
     25 H10A         3.7990    -0.8890    -0.6250 h1         1 RJ6       0.005367
     26 H10B         5.1620    -0.0010     0.0690 h1         1 RJ6       0.005367
     27 HN11        -1.5670     0.4960     3.6910 hn         1 RJ6       0.318800
     28 HN13         1.2620    -1.6880     3.6290 hn         1 RJ6       0.324800
     29 HN15         2.5850    -3.6320     6.2160 hn         1 RJ6       0.224133
     30 HN1A         3.3480    -2.3290     5.5920 hn         1 RJ6       0.224133
     31 HN16        -1.6040    -0.0240     5.9580 hn         1 RJ6       0.349400
     32 HN17         1.1350    -2.6610     7.5550 hn         1 RJ6       0.332400
     33 H153         2.5730    -3.3730     4.6020 hn         1 RJ6       0.224133
@<TRIPOS>BOND
     1     1     2 ar  
     2     1     6 ar  
     3     1     7 1   
     4     2     3 ar  
     5     2    18 1   
     6     3     4 ar  
     7     3     9 1   
     8     4     5 ar  
     9     4    19 1   
    10     5     6 ar  
    11     5    11 1   
    12     6    20 1   
    13     7     8 1   
    14     8    21 1   
    15     8    22 1   
    16     8    23 1   
    17     9    10 1   
    18    10    24 1   
    19    10    25 1   
    20    10    26 1   
    21    11    12 1   
    22    11    27 1   
    23    12    13 1   
    24    12    16 2   
    25    13    14 1   
    26    13    28 1   
    27    14    15 1   
    28    14    17 2   
    29    15    29 1   
    30    15    30 1   
    31    15    33 1   
    32    16    31 1   
    33    17    32 1   
@<TRIPOS>SUBSTRUCTURE
     1 RJ6         1 TEMP              0 ****  ****    0 ROOT
