@<TRIPOS>MOLECULE
molecule
   77    77     1     0     0
SMALL
bcc


@<TRIPOS>ATOM
      1 C1           0.0000     0.0000     0.0000 c          1 RJA       0.892600
      2 O1           1.3430     0.0000     0.0000 o          1 RJA      -0.856800
      3 C2          -0.7530     0.0000     1.3060 c3         1 RJA      -0.183400
      4 O2          -4.8900    -1.2210     1.4260 oh         1 RJA      -0.591800
      5 C3          -2.2560     0.0000     1.0270 c3         1 RJA      -0.063400
      6 O3         -10.0760     6.8360    -1.6400 oh         1 RJA      -0.588800
      7 C4          -3.0220     0.0000     2.3510 c3         1 RJA      -0.086400
      8 O4          -8.4420     6.8630    -6.4150 oh         1 RJA      -0.603800
      9 C5          -4.5260     0.0010     2.0730 c3         1 RJA       0.167300
     10 O5          -7.9850     5.1540    -2.6690 os         1 RJA      -0.387600
     11 C6          -5.2780     0.1240     3.3730 c2         1 RJA      -0.116200
     12 C7          -6.0920     1.1560     3.5740 ce         1 RJA      -0.252000
     13 C8          -6.8260     1.2760     4.8420 ce         1 RJA       0.083800
     14 C9          -7.5600     2.3570     5.0850 c2         1 RJA      -0.528200
     15 O1'         -0.6040     0.0050    -1.0460 o          1 RJA      -0.856800
     16 C10         -7.7520     3.3950     4.0090 c3         1 RJA      -0.074500
     17 C11         -9.2470     3.6440     3.8030 c3         1 RJA      -0.000200
     18 C12         -9.4440     4.5890     2.6450 c2         1 RJA      -0.121400
     19 C13         -9.6790     4.1080     1.4290 ce         1 RJA      -0.152000
     20 C14         -9.8710     5.0290     0.2980 ce         1 RJA      -0.108000
     21 C15        -10.1060     4.5500    -0.9180 c2         1 RJA      -0.196200
     22 C16        -10.3030     5.4940    -2.0760 c3         1 RJA       0.194300
     23 C17         -9.3150     5.1460    -3.1910 c3         1 RJA       0.146100
     24 C18         -9.4280     6.1800    -4.3130 c3         1 RJA      -0.136400
     25 C19         -8.3940     5.8600    -5.3970 c3         1 RJA       0.151100
     26 C20         -6.9990     5.8370    -4.7670 c3         1 RJA      -0.098700
     27 C21         -6.9800     4.8150    -3.6270 c3         1 RJA       0.187300
     28 C22         -7.2560     3.4400    -4.1780 c2         1 RJA      -0.238200
     29 C23         -6.3690     2.4860    -4.0350 c2         1 RJA      -0.135200
     30 C24         -6.6450     1.1120    -4.5880 c3         1 RJA      -0.065900
     31 C25         -6.7470     0.1740     5.8680 c3         1 RJA      -0.061900
     32 C26         -7.0700     4.6990     4.4300 c3         1 RJA      -0.134100
     33 C27         -9.3740     6.0770     2.8660 c3         1 RJA      -0.055900
     34 C28         -5.9660     5.4430    -5.8250 c3         1 RJA      -0.082100
     35 H2          -0.4910     0.8840     1.8740 hc         1 RJA       0.027700
     36 H2A         -0.4910    -0.8850     1.8740 hc         1 RJA       0.027700
     37 H3          -2.5180    -0.8840     0.4580 hc         1 RJA       0.049700
     38 H3A         -2.5180     0.8850     0.4590 hc         1 RJA       0.049700
     39 H4          -2.7590     0.8850     2.9190 hc         1 RJA       0.042700
     40 H4A         -2.7600    -0.8840     2.9200 hc         1 RJA       0.042700
     41 HO4         -8.9490     6.5470    -7.1440 ho         1 RJA       0.395000
     42 H5          -4.7740     0.8370     1.4310 h1         1 RJA       0.038700
     43 H6          -5.1560    -0.6270     4.1440 ha         1 RJA       0.135000
     44 H7          -6.2150     1.9070     2.8030 ha         1 RJA       0.139000
     45 H9          -6.8220     3.1280     4.9020 ha         1 RJA       0.332000
     46 H10         -7.3140     3.0410     3.0840 hc         1 RJA       0.040700
     47 H11         -9.6680     4.0800     4.7010 hc         1 RJA       0.056700
     48 H11A        -9.7440     2.7050     3.5910 hc         1 RJA       0.056700
     49 H13         -9.7300     3.0380     1.2700 ha         1 RJA       0.128000
     50 H14         -9.8210     6.1000     0.4580 ha         1 RJA       0.144000
     51 H15        -10.1570     3.4800    -1.0780 ha         1 RJA       0.130000
     52 H16        -11.3160     5.4010    -2.4480 h1         1 RJA       0.036700
     53 H17         -9.5400     4.1620    -3.5860 h1         1 RJA       0.040700
     54 H18         -9.2370     7.1690    -3.9140 hc         1 RJA       0.058700
     55 H18A       -10.4230     6.1420    -4.7410 hc         1 RJA       0.058700
     56 H19         -8.6120     4.8900    -5.8280 h1         1 RJA       0.030700
     57 H20         -6.7640     6.8180    -4.3740 hc         1 RJA       0.077700
     58 H21         -6.0080     4.8280    -3.1480 h1         1 RJA       0.093700
     59 H22         -8.1870     3.2410    -4.6940 ha         1 RJA       0.118000
     60 H23         -5.4370     2.6850    -3.5200 ha         1 RJA       0.139000
     61 H24         -7.4850     0.6730    -4.0630 hc         1 RJA       0.043033
     62 H24A        -5.7700     0.4870    -4.4550 hc         1 RJA       0.043033
     63 H24B        -6.8780     1.1870    -5.6430 hc         1 RJA       0.043033
     64 H25         -5.7260     0.0790     6.2190 hc         1 RJA       0.053033
     65 H25A        -7.3950     0.4100     6.7030 hc         1 RJA       0.053033
     66 H25B        -7.0620    -0.7600     5.4190 hc         1 RJA       0.053033
     67 H26         -5.9950     4.5630     4.4200 hc         1 RJA       0.049033
     68 H26A        -7.3910     4.9680     5.4290 hc         1 RJA       0.049033
     69 H26B        -7.3420     5.4870     3.7390 hc         1 RJA       0.049033
     70 H27         -8.4990     6.4760     2.3660 hc         1 RJA       0.042033
     71 H27A       -10.2640     6.5440     2.4640 hc         1 RJA       0.042033
     72 H27B        -9.3070     6.2820     3.9280 hc         1 RJA       0.042033
     73 H28         -5.7310     6.3040    -6.4380 hc         1 RJA       0.038033
     74 H28A        -5.0650     5.0910    -5.3370 hc         1 RJA       0.038033
     75 H28B        -6.3700     4.6540    -6.4480 hc         1 RJA       0.038033
     76 HO2         -5.5430    -1.0450     0.7690 ho         1 RJA       0.395000
     77 HO3        -10.8920     7.3080    -1.6370 ho         1 RJA       0.393000
@<TRIPOS>BOND
     1    15     1 1
     2     1     2 1
     3     1     3 1
     4     5     3 1
     5     3    35 1
     6     3    36 1
     7     9     4 1
     8     4    76 1
     9     7     5 1
    10     5    37 1
    11     5    38 1
    12     6    22 1
    13     6    77 1
    14     9     7 1
    15     7    39 1
    16     7    40 1
    17    25     8 1
    18     8    41 1
    19    11     9 1
    20     9    42 1
    21    10    23 1
    22    10    27 1
    23    12    11 2
    24    11    43 1
    25    13    12 1
    26    12    44 1
    27    31    13 1
    28    13    14 2
    29    14    16 1
    30    14    45 1
    31    17    16 1
    32    16    32 1
    33    16    46 1
    34    17    18 1
    35    17    47 1
    36    17    48 1
    37    18    33 1
    38    18    19 2
    39    19    20 1
    40    19    49 1
    41    20    21 2
    42    20    50 1
    43    21    22 1
    44    21    51 1
    45    22    23 1
    46    22    52 1
    47    23    24 1
    48    23    53 1
    49    24    25 1
    50    24    54 1
    51    24    55 1
    52    26    25 1
    53    25    56 1
    54    27    26 1
    55    34    26 1
    56    26    57 1
    57    28    27 1
    58    27    58 1
    59    29    28 2
    60    28    59 1
    61    30    29 1
    62    29    60 1
    63    30    61 1
    64    30    62 1
    65    30    63 1
    66    31    64 1
    67    31    65 1
    68    31    66 1
    69    32    67 1
    70    32    68 1
    71    32    69 1
    72    33    70 1
    73    33    71 1
    74    33    72 1
    75    34    73 1
    76    34    74 1
    77    34    75 1
@<TRIPOS>SUBSTRUCTURE
     1 RJA         1 TEMP              0 ****  ****    0 ROOT
