@<TRIPOS>MOLECULE
RJA
   77    77     1     0     0
SMALL
bcc


@<TRIPOS>ATOM
      1 C1         -4.9490    0.6450   -1.1730 c         1 RJA      0.911600
      2 O1         -4.7610    1.8590   -0.8520 o         1 RJA     -0.860300
      3 C2         -4.7870   -0.4390   -0.1020 c3        1 RJA     -0.185400
      4 O2         -4.4320   -1.0340    4.7960 oh        1 RJA     -0.615800
      5 C3         -5.2050    0.0590    1.2620 c3        1 RJA     -0.072400
      6 O3         -7.4510    7.4160   -1.3530 oh        1 RJA     -0.611800
      7 C4         -4.6460   -0.7970    2.3760 c3        1 RJA     -0.106400
      8 O4        -10.1550    5.6280   -5.5040 oh        1 RJA     -0.609800
      9 C5         -4.9650   -0.2130    3.7510 c3        1 RJA      0.165300
     10 O5         -6.6580    5.8040   -3.3640 os        1 RJA     -0.432600
     11 C6         -4.3670    1.1500    3.9120 c2        1 RJA     -0.133200
     12 C7         -4.9310    2.1570    4.5830 ce        1 RJA     -0.128000
     13 C8         -6.1770    2.0960    5.3450 ce        1 RJA     -0.088200
     14 C9         -7.3060    2.7090    4.9550 c2        1 RJA     -0.163200
     15 O1'        -5.2390    0.2880   -2.3520 o         1 RJA     -0.860300
     16 C10        -7.4680    3.4540    3.6740 c3        1 RJA     -0.039500
     17 C11        -8.8530    3.1800    3.0950 c3        1 RJA     -0.016200
     18 C12        -8.9660    3.3710    1.6210 c2        1 RJA     -0.167500
     19 C13        -7.9710    3.7110    0.8430 c1        1 RJA     -0.042800
     20 C14        -6.9830    3.9900    0.0410 c2        1 RJA     -0.174300
     21 C15        -6.6070    5.3660   -0.3760 c3        1 RJA     -0.070200
     22 C16        -7.6910    6.0240   -1.2310 c3        1 RJA      0.152100
     23 C17        -7.7810    5.3430   -2.6060 c3        1 RJA      0.107100
     24 C18        -9.0720    5.6970   -3.3320 c3        1 RJA     -0.138400
     25 C19        -9.0620    5.1160   -4.7440 c3        1 RJA      0.143100
     26 C20        -7.7780    5.5080   -5.4840 c3        1 RJA     -0.081700
     27 C21        -6.5520    5.1380   -4.6330 c3        1 RJA      0.196300
     28 C22        -6.3450    3.6700   -4.4710 c2        1 RJA     -0.300200
     29 C23        -5.3040    3.1140   -3.8410 c2        1 RJA     -0.075200
     30 C24        -4.1870    3.8430   -3.2120 c3        1 RJA     -0.096900
     31 C25        -6.1010    1.3270    6.6140 c3        1 RJA     -0.058900
     32 C26        -7.2550    4.9400    3.8950 c3        1 RJA     -0.080100
     33 C27       -10.3240    3.1050    1.0750 c3        1 RJA     -0.040900
     34 C28        -7.7180    4.8890   -6.8590 c3        1 RJA     -0.082100
     35 H2         -5.3840   -1.3390   -0.3930 hc        1 RJA      0.026200
     36 H2A        -3.7070   -0.7340   -0.0910 hc        1 RJA      0.026200
     37 H3         -6.3240    0.0790    1.3290 hc        1 RJA      0.053700
     38 H3A        -4.8490    1.1200    1.3800 hc        1 RJA      0.053700
     39 H4         -5.0740   -1.8320    2.3130 hc        1 RJA      0.033700
     40 H4A        -3.5330   -0.8880    2.2680 hc        1 RJA      0.033700
     41 HO4       -10.9470    5.4800   -4.9740 ho        1 RJA      0.392000
     42 H5         -6.0840   -0.1640    3.8920 h1        1 RJA      0.042700
     43 H6         -3.4060    1.2940    3.3910 ha        1 RJA      0.134000
     44 H7         -4.4470    3.1500    4.5940 ha        1 RJA      0.123000
     45 H9         -8.2060    2.6690    5.5910 ha        1 RJA      0.109000
     46 H10        -6.6930    3.0930    2.9350 hc        1 RJA      0.085700
     47 H11        -9.1380    2.1150    3.3210 hc        1 RJA      0.035700
     48 H11A       -9.6050    3.8400    3.6060 hc        1 RJA      0.035700
     49 H13        -6.3420    3.1680   -0.3690 ha        1 RJA      0.228000
     50 H14        -6.4270    6.0090    0.5270 hc        1 RJA      0.061700
     51 H15        -5.6540    5.3250   -0.9700 hc        1 RJA      0.061700
     52 H16        -8.6910    5.9550   -0.7170 h1        1 RJA      0.069700
     53 H17        -7.7030    4.2260   -2.4690 h1        1 RJA      0.083700
     54 H18        -9.9460    5.2930   -2.7610 hc        1 RJA      0.051200
     55 H18A       -9.1740    6.8120   -3.3850 hc        1 RJA      0.051200
     56 H19        -9.1480    3.9940   -4.6970 h1        1 RJA      0.044700
     57 H20        -7.7860    6.6290   -5.5940 hc        1 RJA      0.057700
     58 H21        -5.6360    5.6190   -5.0850 h1        1 RJA      0.063700
     59 H22        -7.1370    3.0290   -4.8870 ha        1 RJA      0.115000
     60 H23        -5.2560    2.0090   -3.6910 ha        1 RJA      0.196000
     61 H24        -4.3240    4.9510   -3.2430 hc        1 RJA      0.053700
     62 H24A       -3.2270    3.5800   -3.7210 hc        1 RJA      0.053700
     63 H24B       -4.1180    3.5070   -2.1380 hc        1 RJA      0.053700
     64 H25        -5.7030    0.3000    6.4040 hc        1 RJA      0.041033
     65 H25A       -7.1010    1.2370    7.1020 hc        1 RJA      0.041033
     66 H25B       -5.4030    1.8330    7.3270 hc        1 RJA      0.041033
     67 H26        -7.9930    5.3420    4.6300 hc        1 RJA      0.031033
     68 H26A       -6.2260    5.1270    4.2850 hc        1 RJA      0.031033
     69 H26B       -7.3780    5.4840    2.9270 hc        1 RJA      0.031033
     70 H27       -10.6230    2.0500    1.2910 hc        1 RJA      0.031367
     71 H27A      -10.3570    3.2620   -0.0310 hc        1 RJA      0.031367
     72 H27B      -11.0700    3.7870    1.5530 hc        1 RJA      0.031367
     73 H28        -7.7220    3.7740   -6.8000 hc        1 RJA      0.035367
     74 H28A       -8.6040    5.2140   -7.4560 hc        1 RJA      0.035367
     75 H28B       -6.7870    5.2110   -7.3840 hc        1 RJA      0.035367
     76 HO2        -4.5460   -1.9490    4.5140 ho        1 RJA      0.392000
     77 HO3        -6.6550    7.5200   -1.8890 ho        1 RJA      0.413000
@<TRIPOS>BOND
     1    1    2 1   
     2    1    3 1   
     3    1   15 1   
     4    3    5 1   
     5    3   35 1   
     6    3   36 1   
     7    4    9 1   
     8    4   76 1   
     9    5    7 1   
    10    5   37 1   
    11    5   38 1   
    12    6   22 1   
    13    6   77 1   
    14    7    9 1   
    15    7   39 1   
    16    7   40 1   
    17    8   25 1   
    18    8   41 1   
    19    9   11 1   
    20    9   42 1   
    21   10   23 1   
    22   10   27 1   
    23   11   12 2   
    24   11   43 1   
    25   12   13 1   
    26   12   44 1   
    27   13   14 2   
    28   13   31 1   
    29   14   16 1   
    30   14   45 1   
    31   16   17 1   
    32   16   32 1   
    33   16   46 1   
    34   17   18 1   
    35   17   47 1   
    36   17   48 1   
    37   18   19 2   
    38   18   33 1   
    39   19   20 2   
    40   20   21 1   
    41   20   49 1   
    42   21   22 1   
    43   21   50 1   
    44   21   51 1   
    45   22   23 1   
    46   22   52 1   
    47   23   24 1   
    48   23   53 1   
    49   24   25 1   
    50   24   54 1   
    51   24   55 1   
    52   25   26 1   
    53   25   56 1   
    54   26   27 1   
    55   26   34 1   
    56   26   57 1   
    57   27   28 1   
    58   27   58 1   
    59   28   29 2   
    60   28   59 1   
    61   29   30 1   
    62   29   60 1   
    63   30   61 1   
    64   30   62 1   
    65   30   63 1   
    66   31   64 1   
    67   31   65 1   
    68   31   66 1   
    69   32   67 1   
    70   32   68 1   
    71   32   69 1   
    72   33   70 1   
    73   33   71 1   
    74   33   72 1   
    75   34   73 1   
    76   34   74 1   
    77   34   75 1   
@<TRIPOS>SUBSTRUCTURE
     1 RJA         1 TEMP              0 ****  ****    0 ROOT
