@<TRIPOS>MOLECULE
molecule
   43    45     1     0     0
SMALL
bcc


@<TRIPOS>ATOM
      1 C1           0.0000     0.0000     0.0000 c3         1 RJE       0.233100
      2 N2           1.4660     0.0000     0.0000 nu         1 RJE      -0.913900
      3 C3           2.1590     0.0000     1.2010 ca         1 RJE       0.779200
      4 N4           1.5070     0.0010     2.3620 nb         1 RJE      -0.879000
      5 C5           2.1650     0.0010     3.5100 ca         1 RJE       0.962300
      6 O6           1.4610     0.0020     4.6690 os         1 RJE      -0.402100
      7 C7           0.0360     0.0020     4.5620 c3         1 RJE       0.156400
      8 C8          -0.5800     0.0030     5.9630 c3         1 RJE       0.134400
      9 O9          -0.2500     1.2240     6.6280 os         1 RJE      -0.419600
     10 C10         -0.7810     1.3270     7.9500 c3         1 RJE       0.128700
     11 N11          3.4860     0.0000     3.5640 nb         1 RJE      -0.796000
     12 C12          4.2090     0.0000     2.4480 ca         1 RJE       0.594200
     13 N13          5.5650    -0.0010     2.1800 n          1 RJE      -0.419300
     14 C14          6.6340    -0.0020     3.1820 c3         1 RJE       0.175300
     15 C15          7.0000    -1.4220     3.5260 ca         1 RJE      -0.129300
     16 C16          7.9870    -2.0740     2.8110 ca         1 RJE      -0.102000
     17 C17          8.3220    -3.3780     3.1260 ca         1 RJE      -0.136000
     18 C18          7.6710    -4.0290     4.1560 ca         1 RJE      -0.119000
     19 C19          6.6850    -3.3770     4.8720 ca         1 RJE      -0.136000
     20 C20          6.3520    -2.0720     4.5600 ca         1 RJE      -0.102000
     21 C21          5.7410    -0.0010     0.8450 c          1 RJE       0.807500
     22 O22          6.8180    -0.0020     0.2790 o          1 RJE      -0.659500
     23 N23          4.5410    -0.0000     0.2320 ns         1 RJE      -0.439100
     24 C25          3.5530    -0.0050     1.2170 ca         1 RJE      -0.366000
     25 H11C        -0.3610     0.8850     0.5100 h1         1 RJE       0.042367
     26 H12C        -0.3610    -0.0000    -1.0210 h1         1 RJE       0.042367
     27 H13C        -0.3610    -0.8840     0.5110 h1         1 RJE       0.042367
     28 H2           1.9660     0.0000    -0.8670 hn         1 RJE       0.446800
     29 H71C        -0.2860     0.8860     4.0260 h1         1 RJE       0.057200
     30 H72C        -0.2870    -0.8830     4.0270 h1         1 RJE       0.057200
     31 H81C        -1.6570    -0.0860     5.8840 h1         1 RJE       0.037700
     32 H82C        -0.1890    -0.8330     6.5300 h1         1 RJE       0.037700
     33 H101        -1.8620     1.2650     7.9120 h1         1 RJE       0.030700
     34 H102        -0.3940     0.5180     8.5580 h1         1 RJE       0.030700
     35 H103        -0.4890     2.2760     8.3840 h1         1 RJE       0.030700
     36 H141         7.5030     0.5090     2.7840 h1         1 RJE       0.078700
     37 H142         6.2930     0.5090     4.0750 h1         1 RJE       0.078700
     38 H16          8.4970    -1.5640     2.0030 ha         1 RJE       0.145500
     39 H20          5.5790    -1.5610     5.1210 ha         1 RJE       0.145500
     40 H17          9.0950    -3.8890     2.5640 ha         1 RJE       0.130500
     41 H18          7.9330    -5.0510     4.4010 ha         1 RJE       0.128000
     42 H19          6.1760    -3.8870     5.6810 ha         1 RJE       0.130500
     43 H23          4.3860    -0.0000    -0.7570 hn         1 RJE       0.354500
@<TRIPOS>BOND
     1     1     2 1
     2     2     3 1
     3     3     4 ar
     4     3    24 ar
     5     4     5 ar
     6     5     6 1
     7     5    11 ar
     8     6     7 1
     9     7     8 1
    10     8     9 1
    11     9    10 1
    12    11    12 ar
    13    12    13 1
    14    12    24 ar
    15    13    14 1
    16    13    21 1
    17    14    15 1
    18    15    16 ar
    19    15    20 ar
    20    16    17 ar
    21    17    18 ar
    22    18    19 ar
    23    19    20 ar
    24    21    22 2
    25    21    23 1
    26    23    24 1
    27     1    25 1
    28     1    26 1
    29     1    27 1
    30     2    28 1
    31     7    29 1
    32     7    30 1
    33     8    31 1
    34     8    32 1
    35    10    33 1
    36    10    34 1
    37    10    35 1
    38    14    36 1
    39    14    37 1
    40    16    38 1
    41    20    39 1
    42    17    40 1
    43    18    41 1
    44    19    42 1
    45    23    43 1
@<TRIPOS>SUBSTRUCTURE
     1 RJE         1 TEMP              0 ****  ****    0 ROOT
