@<TRIPOS>MOLECULE
RJE
   43    45     1     0     0
SMALL
bcc


@<TRIPOS>ATOM
      1 C1           0.0000     0.0000     0.0000 c3         1 RJE       0.203100
      2 N2           1.4660     0.0000     0.0000 nu         1 RJE      -0.497900
      3 C3           2.1590     0.0000     1.2010 ca         1 RJE       0.614200
      4 N4           1.5070     0.0010     2.3620 nb         1 RJE      -0.782000
      5 C5           2.1650     0.0010     3.5100 ca         1 RJE       0.882300
      6 O6           1.4610     0.0020     4.6690 os         1 RJE      -0.397100
      7 C7           0.0360     0.0020     4.5620 c3         1 RJE       0.213400
      8 C8          -0.5800     0.0030     5.9630 c3         1 RJE       0.203400
      9 O9          -0.2500     1.2240     6.6280 os         1 RJE      -0.408600
     10 C10         -0.7810     1.3270     7.9500 c3         1 RJE       0.254700
     11 N11          3.4860     0.0000     3.5640 nb         1 RJE      -0.675000
     12 C12          4.2090     0.0000     2.4480 ca         1 RJE       0.404200
     13 N13          5.5650    -0.0010     2.1800 n          1 RJE      -0.009300
     14 C14          6.6340    -0.0020     3.1820 c3         1 RJE       0.111300
     15 C15          7.0000    -1.4220     3.5260 ca         1 RJE      -0.138300
     16 C16          7.9870    -2.0740     2.8110 ca         1 RJE      -0.077000
     17 C17          8.3220    -3.3780     3.1260 ca         1 RJE      -0.108000
     18 C18          7.6710    -4.0290     4.1560 ca         1 RJE      -0.093000
     19 C19          6.6850    -3.3770     4.8720 ca         1 RJE      -0.108000
     20 C20          6.3520    -2.0720     4.5600 ca         1 RJE      -0.077000
     21 C21          5.7410    -0.0010     0.8450 c          1 RJE       0.568500
     22 O22          6.8180    -0.0020     0.2790 o          1 RJE      -0.717500
     23 N23          4.5410    -0.0000     0.2320 ns         1 RJE       0.040900
     24 C25          3.5530    -0.0050     1.2170 ca         1 RJE      -0.533000
     25 H11C        -0.3610     0.8850     0.5100 h1         1 RJE       0.010367
     26 H12C        -0.3610    -0.0000    -1.0210 h1         1 RJE       0.010367
     27 H13C        -0.3610    -0.8840     0.5110 h1         1 RJE       0.010367
     28 H2           1.9660     0.0000    -0.8670 hn         1 RJE       0.288800
     29 H71C        -0.2860     0.8860     4.0260 h1         1 RJE       0.014700
     30 H72C        -0.2870    -0.8830     4.0270 h1         1 RJE       0.014700
     31 H81C        -1.6570    -0.0860     5.8840 h1         1 RJE      -0.001300
     32 H82C        -0.1890    -0.8330     6.5300 h1         1 RJE      -0.001300
     33 H101        -1.8620     1.2650     7.9120 h1         1 RJE      -0.013633
     34 H102        -0.3940     0.5180     8.5580 h1         1 RJE      -0.013633
     35 H103        -0.4890     2.2760     8.3840 h1         1 RJE      -0.013633
     36 H141         7.5030     0.5090     2.7840 h1         1 RJE       0.044700
     37 H142         6.2930     0.5090     4.0750 h1         1 RJE       0.044700
     38 H16          8.4970    -1.5640     2.0030 ha         1 RJE       0.120500
     39 H20          5.5790    -1.5610     5.1210 ha         1 RJE       0.120500
     40 H17          9.0950    -3.8890     2.5640 ha         1 RJE       0.104000
     41 H18          7.9330    -5.0510     4.4010 ha         1 RJE       0.100000
     42 H19          6.1760    -3.8870     5.6810 ha         1 RJE       0.104000
     43 H23          4.3860    -0.0000    -0.7570 hn         1 RJE       0.183500
@<TRIPOS>BOND
     1     1     2 1   
     2     1    25 1   
     3     1    26 1   
     4     1    27 1   
     5     2     3 1   
     6     2    28 1   
     7     3     4 ar  
     8     3    24 ar  
     9     4     5 ar  
    10     5     6 1   
    11     5    11 ar  
    12     6     7 1   
    13     7     8 1   
    14     7    29 1   
    15     7    30 1   
    16     8     9 1   
    17     8    31 1   
    18     8    32 1   
    19     9    10 1   
    20    10    33 1   
    21    10    34 1   
    22    10    35 1   
    23    11    12 ar  
    24    12    13 1   
    25    12    24 ar  
    26    13    14 1   
    27    13    21 1   
    28    14    15 1   
    29    14    36 1   
    30    14    37 1   
    31    15    16 ar  
    32    15    20 ar  
    33    16    17 ar  
    34    16    38 1   
    35    17    18 ar  
    36    17    40 1   
    37    18    19 ar  
    38    18    41 1   
    39    19    20 ar  
    40    19    42 1   
    41    20    39 1   
    42    21    22 2   
    43    21    23 1   
    44    23    24 1   
    45    23    43 1   
@<TRIPOS>SUBSTRUCTURE
     1 RJE         1 TEMP              0 ****  ****    0 ROOT
