@<TRIPOS>MOLECULE
molecule
   28    29     1     0     0
SMALL
bcc


@<TRIPOS>ATOM
      1 C6           0.0000     0.0000     0.0000 ca         1 RJI      -0.093000
      2 C12          1.3810     0.0000     0.0000 ca         1 RJI      -0.112500
      3 C15          2.0730     0.0000     1.1960 ca         1 RJI      -0.089000
      4 C11          1.3860     0.0020     2.3960 ca         1 RJI      -0.112500
      5 C5           0.0050     0.0020     2.4030 ca         1 RJI      -0.093000
      6 C2          -0.6930     0.0010     1.2030 ca         1 RJI       0.001600
      7 N1          -2.0950     0.0030     1.2060 n          1 RJI      -0.367600
      8 C3          -2.7490     1.1830     1.2040 c          1 RJI       0.709500
      9 O8          -2.1470     2.2360     1.1980 o          1 RJI      -0.505500
     10 C4          -2.7450    -1.1670     1.2060 c          1 RJI       0.791500
     11 O10         -2.0770    -2.1820     1.2030 o          1 RJI      -0.550500
     12 N9          -4.0770    -1.3000     1.2080 ns         1 RJI      -0.543500
     13 C13         -4.9020    -0.2320     1.2110 c          1 RJI       0.703500
     14 O16         -6.1060    -0.3680     1.2120 o          1 RJI      -0.617500
     15 C7          -4.2660     1.1450     1.2070 c3         1 RJI      -0.328700
     16 C14         -4.7560     1.8830    -0.0130 c          1 RJI       0.499100
     17 O18         -3.9600     2.3770    -0.7840 o          1 RJI      -0.356100
     18 N17         -6.0790     1.9950    -0.2450 nz         1 RJI      -0.680400
     19 H6          -0.5420    -0.0000    -0.9380 ha         1 RJI       0.137000
     20 H12          1.9220    -0.0010    -0.9380 ha         1 RJI       0.151500
     21 H15          3.1570    -0.0000     1.1940 ha         1 RJI       0.151000
     22 H11          1.9310     0.0030     3.3320 ha         1 RJI       0.151500
     23 H5          -0.5320     0.0040     3.3430 ha         1 RJI       0.137000
     24 H7          -4.6110     1.6740     2.0870 hc         1 RJI       0.154700
     25 H9          -4.4730    -2.2200     1.2080 hn         1 RJI       0.394500
     26 H171        -6.3920     1.2080    -0.7790 hn         1 RJI       0.489133
     27 H172        -6.2580     2.8370    -0.7560 hn         1 RJI       0.489133
     28 H173        -6.5700     2.0230     0.6270 hn         1 RJI       0.489133
@<TRIPOS>BOND
     1     1     2 ar
     2     1     6 ar
     3     2     3 ar
     4     3     4 ar
     5     4     5 ar
     6     5     6 ar
     7     6     7 1
     8     7     8 1
     9     7    10 1
    10     8     9 2
    11     8    15 1
    12    10    11 2
    13    10    12 1
    14    12    13 1
    15    13    14 2
    16    13    15 1
    17    15    16 1
    18    16    17 2
    19    16    18 1
    20     1    19 1
    21     2    20 1
    22     3    21 1
    23     4    22 1
    24     5    23 1
    25    15    24 1
    26    12    25 1
    27    18    26 1
    28    18    27 1
    29    28    18 1
@<TRIPOS>SUBSTRUCTURE
     1 RJI         1 TEMP              0 ****  ****    0 ROOT
