@<TRIPOS>MOLECULE
molecule
   48    51     1     0     0
SMALL
bcc


@<TRIPOS>ATOM
      1 CAY          0.0000     0.0000     0.0000 ca         1 RJN      -0.102000
      2 CAZ          1.3820     0.0000     0.0000 ca         1 RJN      -0.133000
      3 CBA          2.0730     0.0000     1.1970 ca         1 RJN      -0.116000
      4 CBB          1.3810     0.0010     2.3950 ca         1 RJN      -0.133000
      5 CBC         -0.0010     0.0020     2.3950 ca         1 RJN      -0.102000
      6 CAX         -0.6920     0.0000     1.1980 ca         1 RJN      -0.102300
      7 CAW         -2.1990     0.0010     1.1980 c3         1 RJN       0.216700
      8 OAV         -2.6840    -1.3680     1.1980 os         1 RJN      -0.436900
      9 CAB         -4.0180    -1.5430     1.1980 c          1 RJN       0.748100
     10 OAA         -4.7580    -0.5790     1.1980 o          1 RJN      -0.614000
     11 NAC         -4.5340    -2.7880     1.1970 ns         1 RJN      -0.574900
     12 CAD         -5.9870    -2.9790     1.1980 c3         1 RJN       0.178300
     13 CAE         -6.2990    -4.4540     1.1980 ca         1 RJN      -0.099300
     14 CAJ         -6.4420    -5.1270     2.3970 ca         1 RJN      -0.115500
     15 CAI         -6.7270    -6.4770     2.4050 ca         1 RJN      -0.093500
     16 CAF         -6.4480    -5.1260    -0.0020 ca         1 RJN      -0.115500
     17 CAG         -6.7330    -6.4760    -0.0100 ca         1 RJN      -0.093500
     18 CAH         -6.8730    -7.1630     1.1980 ca         1 RJN      -0.138900
     19 CAK         -7.1790    -8.6090     1.1980 cc         1 RJN       0.552500
     20 NAL         -7.3080    -9.2190     2.3480 nd         1 RJN      -0.646100
     21 CAM         -7.5860   -10.5360     2.4240 ca         1 RJN       0.198400
     22 CAR         -7.7230   -11.1840     3.6540 ca         1 RJN      -0.121000
     23 CAQ         -8.0050   -12.5210     3.6900 ca         1 RJN      -0.092000
     24 CAP         -8.1590   -13.2500     2.5180 ca         1 RJN      -0.153000
     25 CAO         -8.0310   -12.6400     1.2890 ca         1 RJN      -0.051000
     26 CAN         -7.7430   -11.2770     1.2300 ca         1 RJN      -0.207600
     27 CAS         -7.5940   -10.5710    -0.0500 c          1 RJN       0.709100
     28 OAT         -7.7180   -11.1540    -1.1120 o          1 RJN      -0.622500
     29 NAU         -7.3190    -9.2460    -0.0050 ns         1 RJN      -0.472400
     30 HAY         -0.5410    -0.0010    -0.9380 ha         1 RJN       0.134000
     31 HAZ          1.9230    -0.0010    -0.9380 ha         1 RJN       0.132000
     32 HBA          3.1570    -0.0000     1.1970 ha         1 RJN       0.131000
     33 HBB          1.9230     0.0020     3.3330 ha         1 RJN       0.132000
     34 HBC         -0.5430     0.0020     3.3330 ha         1 RJN       0.134000
     35 HAW1        -2.5600     0.5120     2.0830 h1         1 RJN       0.057700
     36 HAW2        -2.5600     0.5120     0.3140 h1         1 RJN       0.057700
     37 HAC         -3.9250    -3.5820     1.1790 hn         1 RJN       0.328500
     38 HAD1        -6.4110    -2.5200     2.0820 h1         1 RJN       0.062700
     39 HAD2        -6.4120    -2.5210     0.3130 h1         1 RJN       0.062700
     40 HAJ         -6.3290    -4.5940     3.3330 ha         1 RJN       0.144000
     41 HAF         -6.3390    -4.5920    -0.9380 ha         1 RJN       0.144000
     42 HAI         -6.8370    -7.0040     3.3450 ha         1 RJN       0.148000
     43 HAG         -6.8480    -7.0020    -0.9500 ha         1 RJN       0.148000
     44 HAU         -7.2180    -8.7290    -0.8560 hn         1 RJN       0.339500
     45 HAR         -7.6060   -10.6290     4.5770 ha         1 RJN       0.148000
     46 HAQ         -8.1100   -13.0190     4.6460 ha         1 RJN       0.135000
     47 HAP         -8.3830   -14.3090     2.5700 ha         1 RJN       0.137000
     48 HAO         -8.1520   -13.2130     0.3780 ha         1 RJN       0.155000
@<TRIPOS>BOND
     1     1     2 ar
     2     1     6 ar
     3     2     3 ar
     4     3     4 ar
     5     4     5 ar
     6     5     6 ar
     7     6     7 1
     8     7     8 1
     9     8     9 1
    10     9    10 2
    11     9    11 1
    12    11    12 1
    13    12    13 1
    14    13    14 ar
    15    13    16 ar
    16    14    15 ar
    17    15    18 ar
    18    16    17 ar
    19    17    18 ar
    20    18    19 1
    21    19    20 2
    22    19    29 1
    23    20    21 1
    24    21    22 ar
    25    21    26 ar
    26    22    23 ar
    27    23    24 ar
    28    24    25 ar
    29    25    26 ar
    30    26    27 1
    31    27    28 2
    32    27    29 1
    33     1    30 1
    34     2    31 1
    35     3    32 1
    36     4    33 1
    37     5    34 1
    38     7    35 1
    39     7    36 1
    40    11    37 1
    41    12    38 1
    42    12    39 1
    43    14    40 1
    44    16    41 1
    45    15    42 1
    46    17    43 1
    47    29    44 1
    48    22    45 1
    49    23    46 1
    50    24    47 1
    51    25    48 1
@<TRIPOS>SUBSTRUCTURE
     1 RJN         1 TEMP              0 ****  ****    0 ROOT
