@<TRIPOS>MOLECULE
RJN
   48    51     1     0     0
SMALL
bcc


@<TRIPOS>ATOM
      1 CAY          0.0000     0.0000     0.0000 ca         1 RJN      -0.074000
      2 CAZ          1.3820     0.0000     0.0000 ca         1 RJN      -0.106500
      3 CBA          2.0730     0.0000     1.1970 ca         1 RJN      -0.090000
      4 CBB          1.3810     0.0010     2.3950 ca         1 RJN      -0.106500
      5 CBC         -0.0010     0.0020     2.3950 ca         1 RJN      -0.074000
      6 CAX         -0.6920     0.0000     1.1980 ca         1 RJN      -0.121300
      7 CAW         -2.1990     0.0010     1.1980 c3         1 RJN       0.303700
      8 OAV         -2.6840    -1.3680     1.1980 os         1 RJN      -0.421900
      9 CAB         -4.0180    -1.5430     1.1980 c          1 RJN       0.677100
     10 OAA         -4.7580    -0.5790     1.1980 o          1 RJN      -0.662000
     11 NAC         -4.5340    -2.7880     1.1970 ns         1 RJN      -0.177900
     12 CAD         -5.9870    -2.9790     1.1980 c3         1 RJN       0.122300
     13 CAE         -6.2990    -4.4540     1.1980 ca         1 RJN      -0.111300
     14 CAJ         -6.4420    -5.1270     2.3970 ca         1 RJN      -0.084000
     15 CAI         -6.7270    -6.4770     2.4050 ca         1 RJN      -0.072000
     16 CAF         -6.4480    -5.1260    -0.0020 ca         1 RJN      -0.084000
     17 CAG         -6.7330    -6.4760    -0.0100 ca         1 RJN      -0.072000
     18 CAH         -6.8730    -7.1630     1.1980 ca         1 RJN      -0.147900
     19 CAK         -7.1790    -8.6090     1.1980 cc         1 RJN       0.353500
     20 NAL         -7.3080    -9.2190     2.3480 nd         1 RJN      -0.532100
     21 CAM         -7.5860   -10.5360     2.4240 ca         1 RJN       0.153400
     22 CAR         -7.7230   -11.1840     3.6540 ca         1 RJN      -0.097000
     23 CAQ         -8.0050   -12.5210     3.6900 ca         1 RJN      -0.063000
     24 CAP         -8.1590   -13.2500     2.5180 ca         1 RJN      -0.127000
     25 CAO         -8.0310   -12.6400     1.2890 ca         1 RJN      -0.015000
     26 CAN         -7.7430   -11.2770     1.2300 ca         1 RJN      -0.215600
     27 CAS         -7.5940   -10.5710    -0.0500 c          1 RJN       0.620100
     28 OAT         -7.7180   -11.1540    -1.1120 o          1 RJN      -0.664500
     29 NAU         -7.3190    -9.2460    -0.0050 ns         1 RJN      -0.017400
     30 HAY         -0.5410    -0.0010    -0.9380 ha         1 RJN       0.106000
     31 HAZ          1.9230    -0.0010    -0.9380 ha         1 RJN       0.104000
     32 HBA          3.1570    -0.0000     1.1970 ha         1 RJN       0.102000
     33 HBB          1.9230     0.0020     3.3330 ha         1 RJN       0.104000
     34 HBC         -0.5430     0.0020     3.3330 ha         1 RJN       0.106000
     35 HAW1        -2.5600     0.5120     2.0830 h1         1 RJN       0.014700
     36 HAW2        -2.5600     0.5120     0.3140 h1         1 RJN       0.014700
     37 HAC         -3.9250    -3.5820     1.1790 hn         1 RJN       0.179500
     38 HAD1        -6.4110    -2.5200     2.0820 h1         1 RJN       0.030700
     39 HAD2        -6.4120    -2.5210     0.3130 h1         1 RJN       0.030700
     40 HAJ         -6.3290    -4.5940     3.3330 ha         1 RJN       0.113500
     41 HAF         -6.3390    -4.5920    -0.9380 ha         1 RJN       0.113500
     42 HAI         -6.8370    -7.0040     3.3450 ha         1 RJN       0.120000
     43 HAG         -6.8480    -7.0020    -0.9500 ha         1 RJN       0.120000
     44 HAU         -7.2180    -8.7290    -0.8560 hn         1 RJN       0.190500
     45 HAR         -7.6060   -10.6290     4.5770 ha         1 RJN       0.119000
     46 HAQ         -8.1100   -13.0190     4.6460 ha         1 RJN       0.103000
     47 HAP         -8.3830   -14.3090     2.5700 ha         1 RJN       0.108000
     48 HAO         -8.1520   -13.2130     0.3780 ha         1 RJN       0.125000
@<TRIPOS>BOND
     1     1     2 ar  
     2     1     6 ar  
     3     1    30 1   
     4     2     3 ar  
     5     2    31 1   
     6     3     4 ar  
     7     3    32 1   
     8     4     5 ar  
     9     4    33 1   
    10     5     6 ar  
    11     5    34 1   
    12     6     7 1   
    13     7     8 1   
    14     7    35 1   
    15     7    36 1   
    16     8     9 1   
    17     9    10 2   
    18     9    11 1   
    19    11    12 1   
    20    11    37 1   
    21    12    13 1   
    22    12    38 1   
    23    12    39 1   
    24    13    14 ar  
    25    13    16 ar  
    26    14    15 ar  
    27    14    40 1   
    28    15    18 ar  
    29    15    42 1   
    30    16    17 ar  
    31    16    41 1   
    32    17    18 ar  
    33    17    43 1   
    34    18    19 1   
    35    19    20 2   
    36    19    29 1   
    37    20    21 1   
    38    21    22 ar  
    39    21    26 ar  
    40    22    23 ar  
    41    22    45 1   
    42    23    24 ar  
    43    23    46 1   
    44    24    25 ar  
    45    24    47 1   
    46    25    26 ar  
    47    25    48 1   
    48    26    27 1   
    49    27    28 2   
    50    27    29 1   
    51    29    44 1   
@<TRIPOS>SUBSTRUCTURE
     1 RJN         1 TEMP              0 ****  ****    0 ROOT
