@<TRIPOS>MOLECULE
RJP
   39    40     1     0     0
SMALL
bcc


@<TRIPOS>ATOM
      1 OAA          0.0000     0.0000     0.0000 o          1 RJP      -0.630100
      2 OAC          1.2880     2.0210     7.3850 o          1 RJP      -0.869800
      3 OAD          3.1610    -2.4550     6.2070 oh         1 RJP      -0.569800
      4 OAE          1.8000    -2.3330     3.9070 o          1 RJP      -0.583100
      5 OAF          4.0820     1.5860     5.4120 oh         1 RJP      -0.617800
      6 CAG          1.9670     0.0000     1.3050 c3         1 RJP      -0.098400
      7 CAH          0.9730    -0.0010     2.4680 c3         1 RJP       0.059800
      8 CAI          1.9690     1.1470     4.3930 c2         1 RJP       0.019800
      9 CAJ         -0.1840     0.3320    -4.7670 ca         1 RJP      -0.130000
     10 CAK         -0.6540     0.9780    -3.6380 ca         1 RJP      -0.084500
     11 CAL          0.9720    -0.4240    -4.7040 ca         1 RJP      -0.084500
     12 CAM          0.0300     0.8690    -2.4430 ca         1 RJP      -0.124000
     13 CAN          1.6640    -0.5320    -3.5130 ca         1 RJP      -0.124000
     14 CAO          2.6860    -0.0870     6.4430 c3         1 RJP      -0.043400
     15 NAP          1.8870    -0.0000    -1.1670 ns         1 RJP      -0.051100
     16 CAQ          1.2130     0.0000     0.0000 c          1 RJP       0.564100
     17 CAR          2.1040     2.3140     6.5430 c          1 RJP       0.947600
     18 CAS          1.7270    -0.0010     3.7730 ce         1 RJP      -0.293400
     19 CAT          1.1910     0.1120    -2.3760 ca         1 RJP      -0.071400
     20 CAU          3.1570    -1.2090     5.5070 c3         1 RJP       0.091100
     21 CAV          2.1860    -1.2710     4.3470 c          1 RJP       0.628300
     22 CAW          2.7230     1.2400     5.6860 c3         1 RJP       0.083000
     23 HOAD         4.0190    -2.8430     6.1530 ho         1 RJP       0.375000
     24 HOAF         4.3730     2.2350     6.0310 ho         1 RJP       0.420000
     25 HAG          2.5900    -0.8840     1.3620 hc         1 RJP       0.032700
     26 HAGA         2.5890     0.8850     1.3620 hc         1 RJP       0.032700
     27 HAH          0.3500     0.8840     2.4110 hc         1 RJP       0.034200
     28 HAHA         0.3500    -0.8850     2.4110 hc         1 RJP       0.034200
     29 HAI          1.6050     2.0630     3.9420 ha         1 RJP       0.110000
     30 HAJ         -0.7230     0.4170    -5.7020 ha         1 RJP       0.096000
     31 HAK         -1.5600     1.5690    -3.6920 ha         1 RJP       0.097500
     32 HAL          1.3390    -0.9270    -5.5900 ha         1 RJP       0.097500
     33 HAM         -0.3410     1.3740    -1.5590 ha         1 RJP       0.123000
     34 HAN          2.5700    -1.1240    -3.4630 ha         1 RJP       0.123000
     35 HAO          3.3450    -0.0320     7.3010 hc         1 RJP       0.041700
     36 HAOA         1.6730    -0.2900     6.7680 hc         1 RJP       0.041700
     37 HNAP         2.8820    -0.1000    -1.1710 hn         1 RJP       0.167500
     38 HAU          4.1510    -0.9850     5.1400 h1         1 RJP       0.022700
     39 OAB          2.4440     3.5990     6.3580 o          1 RJP      -0.869800
@<TRIPOS>BOND
     1     1    16 2   
     2     2    17 1   
     3     3    20 1   
     4     3    23 1   
     5     4    21 2   
     6     5    22 1   
     7     5    24 1   
     8     6     7 1   
     9     6    16 1   
    10     6    25 1   
    11     6    26 1   
    12     7    18 1   
    13     7    27 1   
    14     7    28 1   
    15     8    18 2   
    16     8    22 1   
    17     8    29 1   
    18     9    10 ar  
    19     9    11 ar  
    20     9    30 1   
    21    10    12 ar  
    22    10    31 1   
    23    11    13 ar  
    24    11    32 1   
    25    12    19 ar  
    26    12    33 1   
    27    13    19 ar  
    28    13    34 1   
    29    14    20 1   
    30    14    22 1   
    31    14    35 1   
    32    14    36 1   
    33    15    16 1   
    34    15    19 1   
    35    15    37 1   
    36    17    22 1   
    37    17    39 1   
    38    18    21 1   
    39    20    21 1   
    40    20    38 1   
@<TRIPOS>SUBSTRUCTURE
     1 RJP         1 TEMP              0 ****  ****    0 ROOT
