@<TRIPOS>MOLECULE
molecule
   39    40     1     0     0
SMALL
bcc


@<TRIPOS>ATOM
      1 OAA          0.0000     0.0000     0.0000 o          1 RJP      -0.593100
      2 OAC          1.2880     2.0210     7.3850 o          1 RJP      -0.819800
      3 OAD          3.1610    -2.4550     6.2070 oh         1 RJP      -0.591800
      4 OAE          1.8000    -2.3330     3.9070 o          1 RJP      -0.548100
      5 OAF          4.0820     1.5860     5.4120 oh         1 RJP      -0.624800
      6 CAG          1.9670     0.0000     1.3050 c3         1 RJP      -0.152400
      7 CAH          0.9730    -0.0010     2.4680 c3         1 RJP      -0.006200
      8 CAI          1.9690     1.1470     4.3930 c2         1 RJP      -0.012200
      9 CAJ         -0.1840     0.3320    -4.7670 ca         1 RJP      -0.157000
     10 CAK         -0.6540     0.9780    -3.6380 ca         1 RJP      -0.113500
     11 CAL          0.9720    -0.4240    -4.7040 ca         1 RJP      -0.113500
     12 CAM          0.0300     0.8690    -2.4430 ca         1 RJP      -0.149000
     13 CAN          1.6640    -0.5320    -3.5130 ca         1 RJP      -0.149000
     14 CAO          2.6860    -0.0870     6.4430 c3         1 RJP      -0.077400
     15 NAP          1.8870    -0.0000    -1.1670 ns         1 RJP      -0.486100
     16 CAQ          1.2130     0.0000     0.0000 c          1 RJP       0.658100
     17 CAR          2.1040     2.3140     6.5430 c          1 RJP       0.865600
     18 CAS          1.7270    -0.0010     3.7730 ce         1 RJP      -0.266400
     19 CAT          1.1910     0.1120    -2.3760 ca         1 RJP       0.069600
     20 CAU          3.1570    -1.2090     5.5070 c3         1 RJP       0.045100
     21 CAV          2.1860    -1.2710     4.3470 c          1 RJP       0.575300
     22 CAW          2.7230     1.2400     5.6860 c3         1 RJP       0.061000
     23 HOAD         4.0190    -2.8430     6.1530 ho         1 RJP       0.389000
     24 HOAF         4.3730     2.2350     6.0310 ho         1 RJP       0.426000
     25 HAG          2.5900    -0.8840     1.3620 hc         1 RJP       0.066200
     26 HAGA         2.5890     0.8850     1.3620 hc         1 RJP       0.066200
     27 HAH          0.3500     0.8840     2.4110 hc         1 RJP       0.065200
     28 HAHA         0.3500    -0.8850     2.4110 hc         1 RJP       0.065200
     29 HAI          1.6050     2.0630     3.9420 ha         1 RJP       0.142000
     30 HAJ         -0.7230     0.4170    -5.7020 ha         1 RJP       0.121000
     31 HAK         -1.5600     1.5690    -3.6920 ha         1 RJP       0.125500
     32 HAL          1.3390    -0.9270    -5.5900 ha         1 RJP       0.125500
     33 HAM         -0.3410     1.3740    -1.5590 ha         1 RJP       0.145500
     34 HAN          2.5700    -1.1240    -3.4630 ha         1 RJP       0.145500
     35 HAO          3.3450    -0.0320     7.3010 hc         1 RJP       0.070200
     36 HAOA         1.6730    -0.2900     6.7680 hc         1 RJP       0.070200
     37 HNAP         2.8820    -0.1000    -1.1710 hn         1 RJP       0.322500
     38 HAU          4.1510    -0.9850     5.1400 h1         1 RJP       0.059700
     39 OAB          2.4440     3.5990     6.3580 o          1 RJP      -0.819800
@<TRIPOS>BOND
     1     1    16 2
     2    17    39 1
     3    17     2 1
     4     3    20 1
     5     3    23 1
     6     4    21 2
     7     5    22 1
     8     5    24 1
     9     7     6 1
    10     6    16 1
    11     6    25 1
    12     6    26 1
    13    18     7 1
    14     7    27 1
    15     7    28 1
    16    22     8 1
    17    18     8 2
    18     8    29 1
    19    10     9 ar
    20     9    11 ar
    21     9    30 1
    22    12    10 ar
    23    10    31 1
    24    13    11 ar
    25    11    32 1
    26    12    19 ar
    27    12    33 1
    28    19    13 ar
    29    13    34 1
    30    20    14 1
    31    14    22 1
    32    14    35 1
    33    14    36 1
    34    16    15 1
    35    15    19 1
    36    15    37 1
    37    22    17 1
    38    21    18 1
    39    20    21 1
    40    20    38 1
@<TRIPOS>SUBSTRUCTURE
     1 RJP         1 TEMP              0 ****  ****    0 ROOT
