@<TRIPOS>MOLECULE
molecule
   63    66     1     0     0
SMALL
bcc


@<TRIPOS>ATOM
      1 O01          0.0000     0.0000     0.0000 oh         1 RJW      -0.604800
      2 C02          1.4280     0.0000     0.0000 c3         1 RJW       0.148100
      3 C03          1.9570     0.0000     1.4420 c3         1 RJW      -0.103400
      4 C04          3.1280     0.9920     1.4960 c3         1 RJW      -0.084400
      5 C05          3.2930     1.5830     0.0900 c3         1 RJW       0.014400
      6 C06          3.5940     3.0590     0.1390 ce         1 RJW      -0.009400
      7 C07          3.6440     3.8450    -1.1120 ca         1 RJW      -0.046800
      8 C08          2.4910     4.0160    -1.8790 ca         1 RJW      -0.117000
      9 C09          2.5450     4.7510    -3.0450 ca         1 RJW      -0.128000
     10 C10          3.7390     5.3170    -3.4550 ca         1 RJW      -0.129000
     11 C11          4.8860     5.1500    -2.6990 ca         1 RJW      -0.128000
     12 C12          4.8440     4.4220    -1.5290 ca         1 RJW      -0.117000
     13 C13          3.8130     3.6530     1.3040 c2         1 RJW      -0.251000
     14 C14          1.9590     1.2910    -0.6510 c3         1 RJW      -0.065700
     15 C15          2.4680     0.9540    -2.0720 c3         1 RJW      -0.050200
     16 C16          3.8820     0.4630    -1.8710 c2         1 RJW      -0.100400
     17 C17          4.6710    -0.3160    -2.8920 c3         1 RJW      -0.031200
     18 C18          4.3370    -1.8040    -2.7680 c3         1 RJW      -0.078400
     19 C19          5.1370    -2.5950    -3.8040 c3         1 RJW      -0.083400
     20 C20          4.8020    -4.0830    -3.6790 c3         1 RJW      -0.081400
     21 C21          5.6030    -4.8740    -4.7160 c3         1 RJW      -0.084400
     22 C22          5.2690    -6.3620    -4.5910 c3         1 RJW      -0.092100
     23 C23          4.3350     0.8100    -0.6790 ce         1 RJW      -0.076400
     24 C24          5.6840     0.4850    -0.1680 ca         1 RJW      -0.033800
     25 C25          6.0360    -0.8410     0.0860 ca         1 RJW      -0.119500
     26 C26          7.2950    -1.1380     0.5630 ca         1 RJW      -0.129500
     27 C27          8.2090    -0.1240     0.7900 ca         1 RJW      -0.129000
     28 C28          7.8660     1.1930     0.5420 ca         1 RJW      -0.129500
     29 C29          6.6110     1.5020     0.0580 ca         1 RJW      -0.119500
     30 H011        -0.3140    -0.8800    -0.1230 ho         1 RJW       0.400000
     31 H021         1.8050    -0.8650    -0.5320 h1         1 RJW       0.039700
     32 H031         1.1750     0.3170     2.1210 hc         1 RJW       0.051700
     33 H032         2.3040    -0.9920     1.7070 hc         1 RJW       0.051700
     34 H042         4.0350     0.4750     1.7850 hc         1 RJW       0.059700
     35 H041         2.9070     1.7830     2.2030 hc         1 RJW       0.059700
     36 H081         1.5560     3.5740    -1.5590 ha         1 RJW       0.134000
     37 H091         1.6510     4.8850    -3.6410 ha         1 RJW       0.129500
     38 H101         3.7760     5.8910    -4.3730 ha         1 RJW       0.128000
     39 H111         5.8180     5.5970    -3.0250 ha         1 RJW       0.129500
     40 H121         5.7430     4.2920    -0.9380 ha         1 RJW       0.134000
     41 H131         4.8650     3.7680     1.5340 ha         1 RJW       0.115500
     42 H132         3.4940     3.0600     2.1530 ha         1 RJW       0.115500
     43 H141         1.2590     2.1170    -0.6230 hc         1 RJW       0.091700
     44 H151         2.4630     1.8420    -2.6930 hc         1 RJW       0.060700
     45 H152         1.8590     0.1740    -2.5140 hc         1 RJW       0.060700
     46 H172         5.7300    -0.1680    -2.7210 hc         1 RJW       0.054700
     47 H171         4.4150     0.0290    -3.8870 hc         1 RJW       0.054700
     48 H181         4.5930    -2.1490    -1.7730 hc         1 RJW       0.041700
     49 H182         3.2780    -1.9520    -2.9390 hc         1 RJW       0.041700
     50 H192         6.1970    -2.4470    -3.6320 hc         1 RJW       0.042700
     51 H191         4.8810    -2.2490    -4.7990 hc         1 RJW       0.042700
     52 H202         3.7430    -4.2300    -3.8510 hc         1 RJW       0.040700
     53 H201         5.0580    -4.4280    -2.6850 hc         1 RJW       0.040700
     54 H212         5.3460    -4.5290    -5.7110 hc         1 RJW       0.040700
     55 H211         6.6620    -4.7260    -4.5450 hc         1 RJW       0.040700
     56 H223         5.5250    -6.7070    -3.5960 hc         1 RJW       0.032700
     57 H221         5.8350    -6.9220    -5.3240 hc         1 RJW       0.032700
     58 H222         4.2090    -6.5100    -4.7630 hc         1 RJW       0.032700
     59 H251         5.3210    -1.6360    -0.0920 ha         1 RJW       0.135000
     60 H261         7.5700    -2.1670     0.7600 ha         1 RJW       0.130000
     61 H271         9.1960    -0.3620     1.1680 ha         1 RJW       0.129000
     62 H281         8.5870     1.9820     0.7190 ha         1 RJW       0.130000
     63 H291         6.3440     2.5330    -0.1370 ha         1 RJW       0.135000
@<TRIPOS>BOND
     1    27    28 ar
     2    27    26 ar
     3    28    29 ar
     4    26    25 ar
     5    29    24 ar
     6    25    24 ar
     7    24    23 1
     8    13     6 2
     9    23    16 2
    10    23     5 1
    11    19    20 1
    12    19    18 1
    13    17    16 1
    14    17    18 1
    15     6     7 1
    16     6     5 1
    17    21    20 1
    18    21    22 1
    19     8     7 ar
    20     8     9 ar
    21     7    12 ar
    22    16    15 1
    23     5     4 1
    24     5    14 1
    25     4     3 1
    26     9    10 ar
    27    12    11 ar
    28    10    11 ar
    29     3     2 1
    30    15    14 1
    31    14     2 1
    32     2     1 1
    33     1    30 1
    34     2    31 1
    35     3    32 1
    36     3    33 1
    37     4    34 1
    38     4    35 1
    39     8    36 1
    40     9    37 1
    41    10    38 1
    42    11    39 1
    43    12    40 1
    44    13    41 1
    45    13    42 1
    46    14    43 1
    47    15    44 1
    48    15    45 1
    49    17    46 1
    50    17    47 1
    51    18    48 1
    52    18    49 1
    53    19    50 1
    54    19    51 1
    55    20    52 1
    56    20    53 1
    57    21    54 1
    58    21    55 1
    59    22    56 1
    60    22    57 1
    61    22    58 1
    62    25    59 1
    63    26    60 1
    64    27    61 1
    65    28    62 1
    66    29    63 1
@<TRIPOS>SUBSTRUCTURE
     1 RJW         1 TEMP              0 ****  ****    0 ROOT
