@<TRIPOS>MOLECULE
molecule
   60    64     1     0     0
SMALL
bcc


@<TRIPOS>ATOM
      1 C1           0.0000     0.0000     0.0000 cc         1 RKA      -0.189000
      2 C2           1.4000     0.0000     0.0000 cc         1 RKA      -0.189000
      3 C3           1.8130     0.0000     1.3010 cd         1 RKA      -0.067300
      4 N4           0.7000     0.0050     2.1030 na         1 RKA      -0.148100
      5 C5          -0.4130     0.0080     1.3010 cd         1 RKA      -0.067300
      6 C6           3.2160    -0.0040     1.7630 ca         1 RKA      -0.038000
      7 C7           3.5930     0.7740     2.8610 ca         1 RKA      -0.101500
      8 C8           4.9020     0.7640     3.2940 ca         1 RKA      -0.146250
      9 C9           5.8480    -0.0110     2.6320 ca         1 RKA       0.165600
     10 C10          5.4770    -0.7820     1.5360 ca         1 RKA      -0.146250
     11 C11          4.1700    -0.7810     1.1020 ca         1 RKA      -0.101500
     12 C12         -1.8160     0.0140     1.7650 ca         1 RKA      -0.038000
     13 C13         -2.7700     0.7880     1.1020 ca         1 RKA      -0.101500
     14 C14         -4.0770     0.7910     1.5370 ca         1 RKA      -0.146250
     15 C15         -4.4470     0.0230     2.6350 ca         1 RKA       0.165600
     16 C16         -3.4990    -0.7460     3.3020 ca         1 RKA      -0.146250
     17 C17         -2.1910    -0.7570     2.8680 ca         1 RKA      -0.101500
     18 N18         -5.7740     0.0260     3.0740 nu         1 RKA      -0.733600
     19 C19         -6.3270    -1.1170     3.6090 ce         1 RKA       0.691800
     20 N20         -5.6470    -2.2290     3.6140 n2         1 RKA      -0.879100
     21 C21         -7.6930    -1.0820     4.1790 ca         1 RKA      -0.184400
     22 C22         -8.2550    -2.2380     4.7200 ca         1 RKA      -0.108000
     23 C23         -9.5290    -2.2000     5.2500 ca         1 RKA      -0.125000
     24 C24        -10.2480    -1.0180     5.2420 ca         1 RKA      -0.114000
     25 C25         -9.6960     0.1310     4.7060 ca         1 RKA      -0.125000
     26 C26         -8.4210     0.1070     4.1800 ca         1 RKA      -0.108000
     27 N27          7.1760    -0.0140     3.0700 nu         1 RKA      -0.733600
     28 C28          7.4590     0.1210     4.4130 ce         1 RKA       0.691800
     29 N29          6.4910     0.1430     5.2830 n2         1 RKA      -0.879100
     30 C30          8.8640     0.2400     4.8640 ca         1 RKA      -0.184400
     31 C31          9.1540     0.3770     6.2220 ca         1 RKA      -0.108000
     32 C32         10.4660     0.4880     6.6360 ca         1 RKA      -0.125000
     33 C33         11.4910     0.4640     5.7090 ca         1 RKA      -0.114000
     34 C34         11.2100     0.3290     4.3610 ca         1 RKA      -0.125000
     35 C35          9.9030     0.2110     3.9350 ca         1 RKA      -0.108000
     36 H1          -0.6400    -0.0000    -0.8740 ha         1 RKA       0.147500
     37 H2           2.0390    -0.0050    -0.8740 ha         1 RKA       0.147500
     38 HN4          0.7000     0.0080     3.1040 hn         1 RKA       0.298700
     39 H7           2.8560     1.3780     3.3760 ha         1 RKA       0.134500
     40 H8           5.1950     1.3650     4.1460 ha         1 RKA       0.145250
     41 H10          6.2170    -1.3850     1.0230 ha         1 RKA       0.145250
     42 H11          3.8810    -1.3820     0.2480 ha         1 RKA       0.134500
     43 H13         -2.4820     1.3870     0.2460 ha         1 RKA       0.134500
     44 H14         -4.8180     1.3900     1.0220 ha         1 RKA       0.145250
     45 H16         -3.7910    -1.3440     4.1570 ha         1 RKA       0.145250
     46 H17         -1.4530    -1.3560     3.3880 ha         1 RKA       0.134500
     47 HN18        -6.3360     0.8460     2.9590 hn         1 RKA       0.450300
     48 HN20        -6.0490    -3.0590     4.0030 hn         1 RKA       0.406400
     49 H22         -7.6930    -3.1640     4.7270 ha         1 RKA       0.131750
     50 H23         -9.9670    -3.0970     5.6710 ha         1 RKA       0.135250
     51 H24        -11.2490    -0.9940     5.6570 ha         1 RKA       0.134000
     52 H25        -10.2640     1.0540     4.7050 ha         1 RKA       0.135250
     53 H26         -7.9900     1.0070     3.7600 ha         1 RKA       0.131750
     54 HN27         7.9170    -0.1700     2.4160 hn         1 RKA       0.450300
     55 HN29         6.6970     0.2410     6.2580 hn         1 RKA       0.406400
     56 H31          8.3510     0.3960     6.9490 ha         1 RKA       0.131750
     57 H32         10.6920     0.5940     7.6900 ha         1 RKA       0.135250
     58 H33         12.5190     0.5530     6.0390 ha         1 RKA       0.134000
     59 H34         12.0180     0.3090     3.6390 ha         1 RKA       0.135250
     60 H35          9.6840     0.1060     2.8790 ha         1 RKA       0.131750
@<TRIPOS>BOND
     1     1     2 1
     2     1     5 2
     3     1    36 1
     4     2     3 2
     5     2    37 1
     6     3     4 1
     7     3     6 1
     8     4     5 1
     9     4    38 1
    10     5    12 1
    11     6     7 ar
    12     6    11 ar
    13     7     8 ar
    14     7    39 1
    15     8     9 ar
    16     8    40 1
    17     9    10 ar
    18     9    27 1
    19    10    11 ar
    20    10    41 1
    21    11    42 1
    22    12    13 ar
    23    12    17 ar
    24    13    14 ar
    25    13    43 1
    26    14    15 ar
    27    14    44 1
    28    15    16 ar
    29    15    18 1
    30    16    17 ar
    31    16    45 1
    32    17    46 1
    33    18    19 1
    34    18    47 1
    35    19    20 2
    36    19    21 1
    37    20    48 1
    38    21    22 ar
    39    21    26 ar
    40    22    23 ar
    41    22    49 1
    42    23    24 ar
    43    23    50 1
    44    24    25 ar
    45    24    51 1
    46    25    26 ar
    47    25    52 1
    48    26    53 1
    49    27    28 1
    50    27    54 1
    51    28    29 2
    52    28    30 1
    53    29    55 1
    54    30    31 ar
    55    30    35 ar
    56    31    32 ar
    57    31    56 1
    58    32    33 ar
    59    32    57 1
    60    33    34 ar
    61    33    58 1
    62    34    35 ar
    63    34    59 1
    64    35    60 1
@<TRIPOS>SUBSTRUCTURE
     1 RKA         1 TEMP              0 ****  ****    0 ROOT
