@<TRIPOS>MOLECULE
RKD
   39    41     1     0     0
SMALL
bcc


@<TRIPOS>ATOM
      1 N1           0.0000     0.0000     0.0000 nz         1 RKD       0.074400
      2 C2           1.4700     0.0000     0.0000 c3         1 RKD      -0.106200
      3 C4           3.4820     0.1250     1.4430 ca         1 RKD      -0.167300
      4 C5           4.2210    -0.4450     2.4640 ca         1 RKD      -0.073500
      5 C6           5.5990    -0.3370     2.4630 ca         1 RKD      -0.082000
      6 C7           6.2380     0.3430     1.4400 ca         1 RKD      -0.022600
      7 O7           1.6020    -1.2200     2.0810 oh         1 RKD      -0.575800
      8 Cl8          7.9690     0.4790     1.4380 cl         1 RKD       0.026600
      9 C9           5.4980     0.9130     0.4200 ca         1 RKD      -0.082000
     10 C10          4.1190     0.8030     0.4220 ca         1 RKD      -0.073500
     11 C11          1.3790     1.1640     2.1880 ca         1 RKD      -0.197300
     12 C12          1.1550     1.0690     3.5490 ca         1 RKD      -0.084000
     13 C13          0.6100     2.1340     4.2370 ca         1 RKD      -0.100000
     14 C14          0.2850     3.3070     3.5580 ca         1 RKD       0.086000
     15 C15          0.5130     3.3970     2.1870 ca         1 RKD      -0.100000
     16 C16          1.0580     2.3270     1.5080 ca         1 RKD      -0.084000
     17 C17         -0.3020     4.4550     4.2930 cc         1 RKD      -0.315300
     18 C18         -0.5850     4.5030     5.6720 cc         1 RKD       0.424200
     19 N19         -1.0920     5.6780     5.9410 nd         1 RKD      -0.638800
     20 N20         -1.1520     6.4190     4.7550 na         1 RKD       0.486400
     21 C21         -0.6600     5.6580     3.7580 cd         1 RKD      -0.239300
     22 C60          1.9790     0.0000     1.4420 c3         1 RKD       0.306400
     23 HN1         -0.3340     0.8180    -0.4700 hn         1 RKD       0.229133
     24 HN1A        -0.3340    -0.8160    -0.4730 hn         1 RKD       0.229133
     25 HN1B        -0.3340    -0.0020     0.9440 hn         1 RKD       0.229133
     26 HN20        -1.4960     7.3540     4.6650 hn         1 RKD       0.156700
     27 H2           1.8310    -0.8850    -0.5110 hx         1 RKD       0.097200
     28 H2A          1.8310     0.8840    -0.5110 hx         1 RKD       0.097200
     29 HO7          1.8680    -1.9500     1.5470 ho         1 RKD       0.408000
     30 H5           3.7200    -0.9760     3.2640 ha         1 RKD       0.109500
     31 H6           6.1780    -0.7830     3.2620 ha         1 RKD       0.127500
     32 H9           5.9980     1.4440    -0.3800 ha         1 RKD       0.127500
     33 H10          3.5400     1.2490    -0.3770 ha         1 RKD       0.109500
     34 H16          1.2360     2.3960     0.4420 ha         1 RKD       0.107500
     35 H15          0.2630     4.3060     1.6540 ha         1 RKD       0.123000
     36 H13          0.4340     2.0590     5.3040 ha         1 RKD       0.123000
     37 H12          1.4070     0.1570     4.0760 ha         1 RKD       0.107500
     38 H18         -0.4130     3.7060     6.3850 h4         1 RKD       0.011100
     39 H21         -0.5710     5.9460     2.7170 h4         1 RKD       0.147000
@<TRIPOS>BOND
     1     1     2 1   
     2     1    23 1   
     3     1    24 1   
     4     1    25 1   
     5     2    22 1   
     6     2    27 1   
     7     2    28 1   
     8     3     4 ar  
     9     3    10 ar  
    10     3    22 1   
    11     4     5 ar  
    12     4    30 1   
    13     5     6 ar  
    14     5    31 1   
    15     6     8 1   
    16     6     9 ar  
    17     7    22 1   
    18     7    29 1   
    19     9    10 ar  
    20     9    32 1   
    21    10    33 1   
    22    11    12 ar  
    23    11    16 ar  
    24    11    22 1   
    25    12    13 ar  
    26    12    37 1   
    27    13    14 ar  
    28    13    36 1   
    29    14    15 ar  
    30    14    17 1   
    31    15    16 ar  
    32    15    35 1   
    33    16    34 1   
    34    17    18 1   
    35    17    21 2   
    36    18    19 2   
    37    18    38 1   
    38    19    20 1   
    39    20    21 1   
    40    20    26 1   
    41    21    39 1   
@<TRIPOS>SUBSTRUCTURE
     1 RKD         1 TEMP              0 ****  ****    0 ROOT
