@<TRIPOS>MOLECULE
RKE
   32    33     1     0     0
SMALL
bcc


@<TRIPOS>ATOM
      1 CAA          0.0000     0.0000     0.0000 ca         1 RKE      -0.091000
      2 CAB          1.3830     0.0000     0.0000 ca         1 RKE      -0.089000
      3 CAC         -0.6910     0.0000     1.1970 ca         1 RKE      -0.116000
      4 CAD          2.0740     0.0000     1.1970 ca         1 RKE      -0.091000
      5 CAE         -0.0010    -0.0010     2.3940 ca         1 RKE      -0.101300
      6 CAF          1.3820    -0.0010     2.3950 ca         1 RKE      -0.007600
      7 CAG         -0.4060    -1.2430     4.4880 c          1 RKE       0.621100
      8 CAH         -0.8920    -1.3450     5.9170 c3         1 RKE      -0.111400
      9 CAI         -0.4880    -0.0680     6.6610 c3         1 RKE      -0.014400
     10 CAJ         -1.0160     1.1500     5.9020 c3         1 RKE      -0.026400
     11 CAK         -0.3570     1.2280     4.5230 c3         1 RKE      -0.060400
     12 CAL         -0.7550    -0.0010     3.6990 c3         1 RKE       0.073500
     13 NAN         -2.2000     0.0260     3.4340 n7         1 RKE      -0.572200
     14 OAO          0.2480    -2.1280     3.9920 o          1 RKE      -0.542100
     15 ClAP         2.2500    -0.0020     3.8990 cl         1 RKE      -0.009400
     16 HAA         -0.5420     0.0000    -0.9380 ha         1 RKE       0.105000
     17 HAB          1.9240     0.0000    -0.9380 ha         1 RKE       0.106000
     18 HAC         -1.7750     0.0000     1.1970 ha         1 RKE       0.119000
     19 HAD          3.1570    -0.0000     1.1970 ha         1 RKE       0.115000
     20 HAH         -1.9700    -1.4470     5.9270 hc         1 RKE       0.039700
     21 HAHA        -0.4350    -2.2040     6.3950 hc         1 RKE       0.039700
     22 HAI         -0.9130    -0.0830     7.6580 hc         1 RKE       0.016700
     23 HAIA         0.5920    -0.0130     6.7240 hc         1 RKE       0.016700
     24 HAJ         -0.7860     2.0490     6.4620 hc         1 RKE       0.023700
     25 HAJA        -2.0890     1.0600     5.7820 hc         1 RKE       0.023700
     26 HAK         -0.6890     2.1260     4.0160 hc         1 RKE       0.040700
     27 HAKA         0.7200     1.2500     4.6400 hc         1 RKE       0.040700
     28 HAM         -3.0780     1.9240     3.5700 h1         1 RKE       0.011367
     29 HAMA        -1.7240     1.8070     2.4380 h1         1 RKE       0.011367
     30 HAMB        -3.2940     1.1110     2.0130 h1         1 RKE       0.011367
     31 HNAN        -2.4420    -0.7280     2.8210 hn         1 RKE       0.265800
     32 CAM         -2.6000     1.3010     2.8240 c3         1 RKE       0.151100
@<TRIPOS>BOND
     1     1     2 ar  
     2     1     3 ar  
     3     1    16 1   
     4     2     4 ar  
     5     2    17 1   
     6     3     5 ar  
     7     3    18 1   
     8     4     6 ar  
     9     4    19 1   
    10     5     6 ar  
    11     5    12 1   
    12     6    15 1   
    13     7     8 1   
    14     7    12 1   
    15     7    14 2   
    16     8     9 1   
    17     8    20 1   
    18     8    21 1   
    19     9    10 1   
    20     9    22 1   
    21     9    23 1   
    22    10    11 1   
    23    10    24 1   
    24    10    25 1   
    25    11    12 1   
    26    11    26 1   
    27    11    27 1   
    28    12    13 1   
    29    13    31 1   
    30    13    32 1   
    31    28    32 1   
    32    29    32 1   
    33    30    32 1   
@<TRIPOS>SUBSTRUCTURE
     1 RKE         1 TEMP              0 ****  ****    0 ROOT
