@<TRIPOS>MOLECULE
molecule
   32    33     1     0     0
SMALL
bcc


@<TRIPOS>ATOM
      1 CAA          0.0000     0.0000     0.0000 ca         1 RKE      -0.122000
      2 CAB          1.3830     0.0000     0.0000 ca         1 RKE      -0.118000
      3 CAC         -0.6910     0.0000     1.1970 ca         1 RKE      -0.127000
      4 CAD          2.0740     0.0000     1.1970 ca         1 RKE      -0.115000
      5 CAE         -0.0010    -0.0010     2.3940 ca         1 RKE      -0.098300
      6 CAF          1.3820    -0.0010     2.3950 ca         1 RKE       0.054400
      7 CAG         -0.4060    -1.2430     4.4880 c          1 RKE       0.589100
      8 CAH         -0.8920    -1.3450     5.9170 c3         1 RKE      -0.167400
      9 CAI         -0.4880    -0.0680     6.6610 c3         1 RKE      -0.073400
     10 CAJ         -1.0160     1.1500     5.9020 c3         1 RKE      -0.079400
     11 CAK         -0.3570     1.2280     4.5230 c3         1 RKE      -0.083400
     12 CAL         -0.7550    -0.0010     3.6990 c3         1 RKE       0.124500
     13 NAN         -2.2000     0.0260     3.4340 n7         1 RKE      -0.804200
     14 OAO          0.2480    -2.1280     3.9920 o          1 RKE      -0.511100
     15 ClAP         2.2500    -0.0020     3.8990 cl         1 RKE      -0.100400
     16 HAA         -0.5420     0.0000    -0.9380 ha         1 RKE       0.134000
     17 HAB          1.9240     0.0000    -0.9380 ha         1 RKE       0.137000
     18 HAC         -1.7750     0.0000     1.1970 ha         1 RKE       0.136000
     19 HAD          3.1570    -0.0000     1.1970 ha         1 RKE       0.145000
     20 HAH         -1.9700    -1.4470     5.9270 hc         1 RKE       0.071700
     21 HAHA        -0.4350    -2.2040     6.3950 hc         1 RKE       0.071700
     22 HAI         -0.9130    -0.0830     7.6580 hc         1 RKE       0.046200
     23 HAIA         0.5920    -0.0130     6.7240 hc         1 RKE       0.046200
     24 HAJ         -0.7860     2.0490     6.4620 hc         1 RKE       0.051200
     25 HAJA        -2.0890     1.0600     5.7820 hc         1 RKE       0.051200
     26 HAK         -0.6890     2.1260     4.0160 hc         1 RKE       0.062200
     27 HAKA         0.7200     1.2500     4.6400 hc         1 RKE       0.062200
     28 HAM         -3.0780     1.9240     3.5700 h1         1 RKE       0.038367
     29 HAMA        -1.7240     1.8070     2.4380 h1         1 RKE       0.038367
     30 HAMB        -3.2940     1.1110     2.0130 h1         1 RKE       0.038367
     31 HNAN        -2.4420    -0.7280     2.8210 hn         1 RKE       0.361800
     32 CAM         -2.6000     1.3010     2.8240 c3         1 RKE       0.138100
@<TRIPOS>BOND
     1     1     2 ar
     2     1     3 ar
     3     2     4 ar
     4     3     5 ar
     5     4     6 ar
     6     5     6 ar
     7     5    12 1
     8     6    15 1
     9     7     8 1
    10     7    12 1
    11     7    14 2
    12     8     9 1
    13     9    10 1
    14    10    11 1
    15    11    12 1
    16    12    13 1
    17    32    13 1
    18     1    16 1
    19     2    17 1
    20     3    18 1
    21     4    19 1
    22     8    20 1
    23     8    21 1
    24     9    22 1
    25     9    23 1
    26    10    24 1
    27    10    25 1
    28    11    26 1
    29    11    27 1
    30    32    28 1
    31    32    29 1
    32    32    30 1
    33    13    31 1
@<TRIPOS>SUBSTRUCTURE
     1 RKE         1 TEMP              0 ****  ****    0 ROOT
