@<TRIPOS>MOLECULE
RKN
   31    32     1     0     0
SMALL
bcc


@<TRIPOS>ATOM
      1 C1           0.0000     0.0000     0.0000 c3         1 RKN       0.051100
      2 C2           1.5070     0.0000     0.0000 ca         1 RKN      -0.208300
      3 C3           2.1970     0.0000     1.2000 ca         1 RKN      -0.083000
      4 C4           3.5770    -0.0010     1.2060 ca         1 RKN      -0.096000
      5 C5           4.2770    -0.0020     0.0010 cp         1 RKN       0.028000
      6 C6           3.5770    -0.0020    -1.2060 ca         1 RKN      -0.008600
      7 C10          7.5120    -1.7580     1.8350 ca         1 RKN      -0.087500
      8 C11          8.3990    -1.0430     1.0510 ca         1 RKN      -0.078000
      9 C13          6.5710     0.0260    -0.0670 ca         1 RKN      -0.094000
     10 Cl           4.4400    -0.0040    -2.7110 cl         1 RKN       0.046600
     11 C7           2.1960    -0.0070    -1.1990 ca         1 RKN      -0.074000
     12 N           -0.4900    -1.3850     0.0070 ny         1 RKN       0.036000
     13 C           -1.9590    -1.3850     0.0080 c3         1 RKN       0.003100
     14 C8           5.6730    -0.6930     0.7200 cp         1 RKN      -0.048000
     15 C12          7.9290    -0.1520     0.1020 ca         1 RKN      -0.087500
     16 C9           6.1530    -1.5880     1.6740 ca         1 RKN      -0.094000
     17 H1          -0.3610     0.5150     0.8820 hx         1 RKN       0.080200
     18 H2          -0.3610     0.5060    -0.8870 hx         1 RKN       0.080200
     19 H3           1.6520     0.0010     2.1360 ha         1 RKN       0.107000
     20 H4           4.1150    -0.0010     2.1460 ha         1 RKN       0.142000
     21 H6           9.4650    -1.1800     1.1810 ha         1 RKN       0.114000
     22 H7           6.2040     0.7230    -0.8100 ha         1 RKN       0.108500
     23 H8           1.6510    -0.0070    -2.1360 ha         1 RKN       0.119000
     24 H9          -0.1560    -1.8530     0.8260 hn         1 RKN       0.242300
     25 H10         -0.1570    -1.8610    -0.8080 hn         1 RKN       0.242300
     26 H11         -2.3190    -0.8700     0.8910 hx         1 RKN       0.073033
     27 H12         -2.3200    -2.4060     0.0130 hx         1 RKN       0.073033
     28 H13         -2.3210    -0.8780    -0.8780 hx         1 RKN       0.073033
     29 H14          8.6280     0.4060    -0.5090 ha         1 RKN       0.114500
     30 H15          5.4590    -2.1490     2.2890 ha         1 RKN       0.108500
     31 H5           7.8860    -2.4540     2.5760 ha         1 RKN       0.114500
@<TRIPOS>BOND
     1     1     2 1   
     2     1    12 1   
     3     1    17 1   
     4     1    18 1   
     5     2     3 ar  
     6     2    11 ar  
     7     3     4 ar  
     8     3    19 1   
     9     4     5 ar  
    10     4    20 1   
    11     5     6 ar  
    12     5    14 1   
    13     6    10 1   
    14     6    11 ar  
    15     7     8 ar  
    16     7    16 ar  
    17     7    31 1   
    18     8    15 ar  
    19     8    21 1   
    20     9    14 ar  
    21     9    15 ar  
    22     9    22 1   
    23    11    23 1   
    24    12    13 1   
    25    12    24 1   
    26    12    25 1   
    27    13    26 1   
    28    13    27 1   
    29    13    28 1   
    30    14    16 ar  
    31    15    29 1   
    32    16    30 1   
@<TRIPOS>SUBSTRUCTURE
     1 RKN         1 TEMP              0 ****  ****    0 ROOT
