@<TRIPOS>MOLECULE
molecule
   31    32     1     0     0
SMALL
bcc


@<TRIPOS>ATOM
      1 C1           0.0000     0.0000     0.0000 c3         1 RKN       0.163100
      2 C2           1.5070     0.0000     0.0000 ca         1 RKN      -0.194300
      3 C3           2.1970     0.0000     1.2000 ca         1 RKN      -0.115000
      4 C4           3.5770    -0.0010     1.2060 ca         1 RKN      -0.110000
      5 C5           4.2770    -0.0020     0.0010 cp         1 RKN       0.008000
      6 C6           3.5770    -0.0020    -1.2060 ca         1 RKN       0.060400
      7 C10          7.5120    -1.7580     1.8350 ca         1 RKN      -0.118500
      8 C11          8.3990    -1.0430     1.0510 ca         1 RKN      -0.106000
      9 C13          6.5710     0.0260    -0.0670 ca         1 RKN      -0.108000
     10 Cl           4.4400    -0.0040    -2.7110 cl         1 RKN      -0.050400
     11 C7           2.1960    -0.0070    -1.1990 ca         1 RKN      -0.098000
     12 N           -0.4900    -1.3850     0.0070 ny         1 RKN      -0.734000
     13 C           -1.9590    -1.3850     0.0080 c3         1 RKN       0.084100
     14 C8           5.6730    -0.6930     0.7200 cp         1 RKN      -0.058000
     15 C12          7.9290    -0.1520     0.1020 ca         1 RKN      -0.118500
     16 C9           6.1530    -1.5880     1.6740 ca         1 RKN      -0.108000
     17 H1          -0.3610     0.5150     0.8820 hx         1 RKN       0.109700
     18 H2          -0.3610     0.5060    -0.8870 hx         1 RKN       0.109700
     19 H3           1.6520     0.0010     2.1360 ha         1 RKN       0.135000
     20 H4           4.1150    -0.0010     2.1460 ha         1 RKN       0.171000
     21 H6           9.4650    -1.1800     1.1810 ha         1 RKN       0.146000
     22 H7           6.2040     0.7230    -0.8100 ha         1 RKN       0.136500
     23 H8           1.6510    -0.0070    -2.1360 ha         1 RKN       0.150000
     24 H9          -0.1560    -1.8530     0.8260 hn         1 RKN       0.453300
     25 H10         -0.1570    -1.8610    -0.8080 hn         1 RKN       0.453300
     26 H11         -2.3190    -0.8700     0.8910 hx         1 RKN       0.104367
     27 H12         -2.3200    -2.4060     0.0130 hx         1 RKN       0.104367
     28 H13         -2.3210    -0.8780    -0.8780 hx         1 RKN       0.104367
     29 H14          8.6280     0.4060    -0.5090 ha         1 RKN       0.146500
     30 H15          5.4590    -2.1490     2.2890 ha         1 RKN       0.136500
     31 H5           7.8860    -2.4540     2.5760 ha         1 RKN       0.146500
@<TRIPOS>BOND
     1     4     3 ar
     2     4     5 ar
     3     3     2 ar
     4     7     8 ar
     5     7    16 ar
     6     8    15 ar
     7    16    14 ar
     8    15     9 ar
     9    14     9 ar
    10    14     5 1
    11     5     6 ar
    12     2     1 1
    13     2    11 ar
    14     1    12 1
    15     6    11 ar
    16     6    10 1
    17    12    13 1
    18     1    17 1
    19     1    18 1
    20     3    19 1
    21     4    20 1
    22     7    31 1
    23     8    21 1
    24     9    22 1
    25    11    23 1
    26    12    24 1
    27    12    25 1
    28    13    26 1
    29    13    27 1
    30    13    28 1
    31    15    29 1
    32    16    30 1
@<TRIPOS>SUBSTRUCTURE
     1 RKN         1 TEMP              0 ****  ****    0 ROOT
