@<TRIPOS>MOLECULE
RKS
   74    74     1     0     0
SMALL
bcc


@<TRIPOS>ATOM
      1 C1           0.0000     0.0000     0.0000 ca         1 RKS      -0.161600
      2 N1          -2.0900    -0.0010    -1.2720 ns         1 RKS      -0.192900
      3 O1           2.0820     0.0000    -1.1730 oh         1 RKS      -0.430100
      4 C2           1.4000     0.0000     0.0000 ca         1 RKS       0.190100
      5 N4          -3.2790     1.6620    -4.3120 ns         1 RKS      -0.181900
      6 O2           3.4480     0.0010     1.2170 oh         1 RKS      -0.481100
      7 C4           2.0880     0.0000     1.2090 ca         1 RKS       0.040100
      8 O3          -0.1370    -0.0000    -2.3300 o          1 RKS      -0.591100
      9 C5           1.3880    -0.0000     2.4050 ca         1 RKS      -0.129000
     10 N2          -3.7680     0.3250   -10.7340 n          1 RKS      -0.029300
     11 C6           0.0040     0.0010     2.4040 ca         1 RKS      -0.115000
     12 C7          -0.6920     0.0060     1.2140 ca         1 RKS      -0.084000
     13 C8          -0.7420    -0.0010    -1.2750 c          1 RKS       0.606700
     14 O6          -4.7430    -0.6650   -11.0020 oh         1 RKS      -0.452100
     15 O7          -2.5940     2.0620   -11.4600 o          1 RKS      -0.638100
     16 C9          -2.8250    -0.0010    -2.5390 c3         1 RKS      -0.026300
     17 C10         -2.4580    -1.2510    -3.3420 c3         1 RKS      -0.061400
     18 C11         -2.4640     1.2290    -3.3290 c          1 RKS       0.562100
     19 C12         -2.9270     2.8580    -5.0810 c3         1 RKS      -0.024300
     20 C13         -2.9370    -2.4970    -2.5940 c3         1 RKS      -0.021400
     21 C14         -2.5700    -3.7460    -3.3970 c3         1 RKS      -0.052400
     22 C15         -3.3990     4.0850    -4.3460 c          1 RKS       0.684100
     23 C16         -3.5990     2.7960    -6.4550 c3         1 RKS      -0.035400
     24 C17         -3.0260     1.6210    -7.2500 c3         1 RKS      -0.026400
     25 C18         -3.6970     1.5600    -8.6240 c3         1 RKS      -0.053400
     26 C19         -3.1250     0.3840    -9.4190 c3         1 RKS       0.054000
     27 C20         -3.4300     1.2150   -11.6900 c          1 RKS       0.587100
     28 C21         -4.0910     1.1530   -13.0420 c3         1 RKS      -0.064100
     29 HN1         -2.5870     0.0640    -0.4060 hn         1 RKS       0.175500
     30 HO1          2.8530     0.5370    -1.0880 ho         1 RKS       0.400000
     31 HN2         -4.1280     1.1720    -4.5100 hn         1 RKS       0.177500
     32 HO2          3.7590     0.5650     1.9060 ho         1 RKS       0.402000
     33 H5          -0.5350     0.0030     3.3430 ha         1 RKS       0.105000
     34 H6          -1.7750     0.0060     1.2210 ha         1 RKS       0.102000
     35 C22         -3.6690     6.4410    -4.1040 c3         1 RKS       0.269700
     36 HO7         -4.3160    -1.4840   -11.1910 ho         1 RKS       0.393000
     37 HO8         -3.8900    -0.0020    -2.3380 h1         1 RKS       0.031700
     38 H12         -2.9330    -1.2080    -4.3150 hc         1 RKS       0.046700
     39 H13         -1.3820    -1.2960    -3.4670 hc         1 RKS       0.046700
     40 H13A        -1.8520     2.9040    -5.2070 h1         1 RKS       0.082700
     41 H17         -2.4620    -2.5400    -1.6220 hc         1 RKS       0.012700
     42 H18         -4.0120    -2.4510    -2.4690 hc         1 RKS       0.012700
     43 C23         -3.0490    -4.9920    -2.6510 c3         1 RKS       0.051000
     44 H18A        -1.4950    -3.7920    -3.5230 hc         1 RKS       0.033700
     45 H19         -3.0450    -3.7030    -4.3700 hc         1 RKS       0.033700
     46 H19A        -3.4120     3.7190    -6.9910 hc         1 RKS       0.031200
     47 H19B        -4.6660     2.6610    -6.3300 hc         1 RKS       0.031200
     48 H30         -3.2140     0.6980    -6.7150 hc         1 RKS       0.020700
     49 H30A        -1.9580     1.7550    -7.3750 hc         1 RKS       0.020700
     50 H31         -4.7640     1.4270    -8.4990 hc         1 RKS       0.031700
     51 H31A        -3.5090     2.4830    -9.1590 hc         1 RKS       0.031700
     52 H32         -2.0580     0.5180    -9.5450 h1         1 RKS       0.030700
     53 H32A        -3.3130    -0.5390    -8.8840 h1         1 RKS       0.030700
     54 H33         -3.7670     1.9960   -13.6410 hc         1 RKS       0.025367
     55 H33A        -3.8140     0.2310   -13.5380 hc         1 RKS       0.025367
     56 H37         -5.1670     1.1890   -12.9200 hc         1 RKS       0.025367
     57 N3          -2.6970    -6.1880    -3.4200 n          1 RKS      -0.028300
     58 C24         -1.4210    -6.6210    -3.4450 c          1 RKS       0.586100
     59 O9          -3.6980    -6.8890    -4.1350 oh         1 RKS      -0.453100
     60 O10         -0.5640    -6.0200    -2.8320 o          1 RKS      -0.633100
     61 C25         -1.0590    -7.8520    -4.2370 c3         1 RKS      -0.063100
     62 H311        -3.4580     7.3550    -4.6460 h1         1 RKS       0.001367
     63 H321        -3.1630     6.4640    -3.1460 h1         1 RKS       0.001367
     64 H331        -4.7370     6.3540    -3.9460 h1         1 RKS       0.001367
     65 H34         -2.5740    -5.0350    -1.6780 h1         1 RKS       0.028200
     66 H35         -4.1240    -4.9470    -2.5250 h1         1 RKS       0.028200
     67 H36         -4.2270    -7.3850    -3.5320 ho         1 RKS       0.392000
     68 H371         0.0140    -7.9960    -4.2100 hc         1 RKS       0.024367
     69 H38         -1.3800    -7.7280    -5.2650 hc         1 RKS       0.024367
     70 H39         -1.5510    -8.7160    -3.8070 hc         1 RKS       0.024367
     71 H4           1.9270    -0.0020     3.3450 ha         1 RKS       0.108000
     72 O4          -1.4400     1.8300    -3.0830 o          1 RKS      -0.601100
     73 O5          -3.1860     5.3050    -4.8660 os         1 RKS      -0.411900
     74 O8          -3.9720     3.9720    -3.2880 o          1 RKS      -0.586000
@<TRIPOS>BOND
     1     1     4 ar  
     2     1    12 ar  
     3     1    13 1   
     4     2    13 1   
     5     2    16 1   
     6     2    29 1   
     7     3     4 1   
     8     3    30 1   
     9     4     7 ar  
    10     5    18 1   
    11     5    19 1   
    12     5    31 1   
    13     6     7 1   
    14     6    32 1   
    15     7     9 ar  
    16     8    13 2   
    17     9    11 ar  
    18     9    71 1   
    19    10    14 1   
    20    10    26 1   
    21    10    27 1   
    22    11    12 ar  
    23    11    33 1   
    24    12    34 1   
    25    14    36 1   
    26    15    27 2   
    27    16    17 1   
    28    16    18 1   
    29    16    37 1   
    30    17    20 1   
    31    17    38 1   
    32    17    39 1   
    33    18    72 2   
    34    19    22 1   
    35    19    23 1   
    36    19    40 1   
    37    20    21 1   
    38    20    41 1   
    39    20    42 1   
    40    21    43 1   
    41    21    44 1   
    42    21    45 1   
    43    22    73 1   
    44    22    74 2   
    45    23    24 1   
    46    23    46 1   
    47    23    47 1   
    48    24    25 1   
    49    24    48 1   
    50    24    49 1   
    51    25    26 1   
    52    25    50 1   
    53    25    51 1   
    54    26    52 1   
    55    26    53 1   
    56    27    28 1   
    57    28    54 1   
    58    28    55 1   
    59    28    56 1   
    60    35    62 1   
    61    35    63 1   
    62    35    64 1   
    63    35    73 1   
    64    43    57 1   
    65    43    65 1   
    66    43    66 1   
    67    57    58 1   
    68    57    59 1   
    69    58    60 2   
    70    58    61 1   
    71    59    67 1   
    72    61    68 1   
    73    61    69 1   
    74    61    70 1   
@<TRIPOS>SUBSTRUCTURE
     1 RKS         1 TEMP              0 ****  ****    0 ROOT
