@<TRIPOS>MOLECULE
molecule
   20    22     1     0     0
SMALL
bcc


@<TRIPOS>ATOM
      1 N5           0.0000     0.0000     0.0000 nb         1 RKT      -0.608500
      2 N6           1.3550     0.0000     2.3730 nb         1 RKT      -0.642500
      3 N7           4.2110     0.0000    -2.3230 nb         1 RKT      -0.642500
      4 N8           1.4810     0.0010    -2.4350 nb         1 RKT      -0.608500
      5 C19          1.3300     0.0000     0.0000 ca         1 RKT       0.262000
      6 C20         -0.6530     0.0000     1.1440 ca         1 RKT       0.297900
      7 C21          0.0390    -0.0010     2.3520 ca         1 RKT       0.305400
      8 C22          2.0360     0.0000     1.2250 ca         1 RKT       0.313300
      9 C23          3.4510     0.0010     1.2200 ca         1 RKT      -0.155300
     10 C24          4.1520     0.0010     0.0690 ca         1 RKT      -0.155300
     11 C25          3.5050    -0.0000    -1.1900 ca         1 RKT       0.313300
     12 C26          2.0930     0.0010    -1.2540 ca         1 RKT       0.262000
     13 C27          3.5880    -0.0020    -3.4820 ca         1 RKT       0.305400
     14 C28          2.1970     0.0010    -3.5410 ca         1 RKT       0.297900
     15 H20         -1.7360    -0.0010     1.1460 h4         1 RKT       0.036100
     16 H21         -0.5110    -0.0010     3.2850 h4         1 RKT       0.034100
     17 H23          3.9840     0.0020     2.1640 ha         1 RKT       0.156500
     18 H24          5.2350     0.0020     0.1070 ha         1 RKT       0.156500
     19 H27          4.1630    -0.0020    -4.3990 h4         1 RKT       0.034100
     20 H28          1.7000    -0.0010    -4.5030 h4         1 RKT       0.036100
@<TRIPOS>BOND
     1     1     5 ar
     2     1     6 ar
     3     2     7 ar
     4     2     8 ar
     5     3    11 ar
     6     3    13 ar
     7     4    12 ar
     8     4    14 ar
     9     5     8 ar
    10     5    12 ar
    11     6     7 ar
    12     8     9 ar
    13     9    10 ar
    14    10    11 ar
    15    11    12 ar
    16    13    14 ar
    17     6    15 1
    18     7    16 1
    19     9    17 1
    20    10    18 1
    21    13    19 1
    22    14    20 1
@<TRIPOS>SUBSTRUCTURE
     1 RKT         1 TEMP              0 ****  ****    0 ROOT
