@<TRIPOS>MOLECULE
RKT
   20    22     1     0     0
SMALL
bcc


@<TRIPOS>ATOM
      1 N5         -0.0550   -0.0010   -0.0340 nb        1 RKT     -0.588000
      2 N6          1.3600    0.0000    2.4390 nb        1 RKT     -0.624000
      3 N7          4.2730    0.0000   -2.3490 nb        1 RKT     -0.624000
      4 N8          1.4250   -0.0010   -2.4680 nb        1 RKT     -0.588000
      5 C19         1.3230   -0.0000   -0.0090 ca        1 RKT      0.250000
      6 C20        -0.6780   -0.0010    1.1370 ca        1 RKT      0.286900
      7 C21         0.0350   -0.0000    2.3860 ca        1 RKT      0.298900
      8 C22         2.0340    0.0000    1.2360 ca        1 RKT      0.295300
      9 C23         3.4750    0.0010    1.2400 ca        1 RKT     -0.156300
     10 C24         4.1800    0.0010    0.0810 ca        1 RKT     -0.156300
     11 C25         3.5140    0.0000   -1.1970 ca        1 RKT      0.295300
     12 C26         2.0810   -0.0000   -1.2560 ca        1 RKT      0.250000
     13 C27         3.6160   -0.0000   -3.5010 ca        1 RKT      0.298900
     14 C28         2.1790   -0.0010   -3.5600 ca        1 RKT      0.286900
     15 H20        -1.7820   -0.0010    1.1190 h4        1 RKT      0.039100
     16 H21        -0.5100   -0.0000    3.3460 h4        1 RKT      0.037100
     17 H23         3.9930    0.0010    2.2140 ha        1 RKT      0.160000
     18 H24         5.2830    0.0010    0.0930 ha        1 RKT      0.160000
     19 H27         4.2180   -0.0000   -4.4260 h4        1 RKT      0.037100
     20 H28         1.6550   -0.0010   -4.5310 h4        1 RKT      0.039100
@<TRIPOS>BOND
     1    1    5 ar  
     2    1    6 ar  
     3    2    7 ar  
     4    2    8 ar  
     5    3   11 ar  
     6    3   13 ar  
     7    4   12 ar  
     8    4   14 ar  
     9    5    8 ar  
    10    5   12 ar  
    11    6    7 ar  
    12    6   15 1   
    13    7   16 1   
    14    8    9 ar  
    15    9   10 ar  
    16    9   17 1   
    17   10   11 ar  
    18   10   18 1   
    19   11   12 ar  
    20   13   14 ar  
    21   13   19 1   
    22   14   20 1   
@<TRIPOS>SUBSTRUCTURE
     1 RKT         1 TEMP              0 ****  ****    0 ROOT
