@<TRIPOS>MOLECULE
molecule
   47    51     1     0     0
SMALL
bcc


@<TRIPOS>ATOM
      1 C01          0.0000     0.0000     0.0000 ca         1 RL1       0.225100
      2 C02          1.3850     0.0000     0.0000 ca         1 RL1      -0.303000
      3 C03          2.0810     0.0000     1.1970 ca         1 RL1       0.218100
      4 C04          1.3850     0.0010     2.4170 ca         1 RL1      -0.158900
      5 C05         -0.0050     0.0020     2.4220 ca         1 RL1      -0.046000
      6 C06         -0.7030     0.0070     1.2140 ca         1 RL1      -0.198600
      7 C07         -2.1770     0.0130     1.2140 c          1 RL1       0.691700
      8 O08         -2.7810     0.7670     0.4760 o          1 RL1      -0.592100
      9 O09          3.4370    -0.0010     1.1910 oh         1 RL1      -0.470100
     10 O10         -0.6760     0.0010    -1.1760 oh         1 RL1      -0.475100
     11 C11          2.1300     0.0010     3.6930 cc         1 RL1       0.348400
     12 N12          1.8750     0.7890     4.7820 na         1 RL1      -0.055200
     13 C13          2.8140     0.4440     5.7240 cd         1 RL1      -0.071300
     14 N14          3.5710    -0.5030     5.1880 nc         1 RL1      -0.086000
     15 N15          3.1610    -0.7630     3.9960 nc         1 RL1      -0.304700
     16 C16          0.9460     1.7500     5.0510 cd         1 RL1      -0.046300
     17 C17          0.9360     2.3770     6.2470 cc         1 RL1      -0.050900
     18 C18          1.8850     2.0460     7.2310 cc         1 RL1      -0.108000
     19 C19          2.8160     1.0880     6.9750 cd         1 RL1      -0.074000
     20 Br1         -0.3610     3.7080     6.6010 br         1 RL1      -0.057100
     21 N21         -2.8550    -0.8170     2.0310 n          1 RL1      -0.491800
     22 C22         -2.1600    -1.8140     2.8530 c3         1 RL1       0.145300
     23 C23         -2.8870    -3.1330     2.7750 ca         1 RL1      -0.100300
     24 C24         -4.1430    -3.2490     2.2220 ca         1 RL1      -0.063300
     25 C25         -4.8820    -2.0840     1.6200 c3         1 RL1      -0.056100
     26 C26         -4.3220    -0.7540     2.1410 c3         1 RL1       0.111000
     27 C27         -2.2500    -4.2550     3.2870 ca         1 RL1      -0.122000
     28 C28         -2.8690    -5.4880     3.2530 ca         1 RL1      -0.127000
     29 C29         -4.1350    -5.6050     2.7070 ca         1 RL1      -0.123000
     30 C30         -4.7660    -4.4920     2.1950 ca         1 RL1      -0.128000
     31 H1           1.9260    -0.0030    -0.9390 ha         1 RL1       0.148000
     32 H2          -0.5440     0.0050     3.3620 ha         1 RL1       0.149000
     33 H3           3.7490     0.4980     0.4550 ho         1 RL1       0.426000
     34 H4          -0.2260     0.5480    -1.7980 ho         1 RL1       0.431000
     35 H5           0.2110     2.0130     4.3000 h4         1 RL1       0.180000
     36 H6           1.8730     2.5510     8.1890 ha         1 RL1       0.159000
     37 H7           3.5510     0.8250     7.7260 ha         1 RL1       0.170000
     38 H8          -2.1600    -1.4780     3.8830 h1         1 RL1       0.061700
     39 H9          -1.1570    -1.9470     2.4670 h1         1 RL1       0.061700
     40 H10         -5.9310    -2.1540     1.8830 hc         1 RL1       0.062200
     41 H11         -4.7780    -2.1150     0.5420 hc         1 RL1       0.062200
     42 H12         -4.5950    -0.6370     3.1820 h1         1 RL1       0.066700
     43 H13         -4.6900     0.0540     1.5210 h1         1 RL1       0.066700
     44 H14         -1.2590    -4.1630     3.7150 ha         1 RL1       0.132000
     45 H15         -2.3680    -6.3590     3.6570 ha         1 RL1       0.132000
     46 H16         -4.6260    -6.5700     2.6780 ha         1 RL1       0.131000
     47 H17         -5.7580    -4.5860     1.7680 ha         1 RL1       0.131000
@<TRIPOS>BOND
     1     9     3 1
     2    14    15 1
     3    14    13 2
     4    15    11 2
     5     3     2 ar
     6     3     4 ar
     7    13    19 1
     8    13    12 1
     9    11    12 1
    10    11     4 1
    11    19    18 2
    12     2     1 ar
    13    12    16 1
    14     4     5 ar
    15    18    17 1
    16    16    17 2
    17    17    20 1
    18     1    10 1
    19     1     6 ar
    20     5     6 ar
    21     6     7 1
    22    26    25 1
    23    26    21 1
    24    25    24 1
    25     7    21 1
    26     7     8 2
    27    21    22 1
    28    24    30 ar
    29    24    23 ar
    30    30    29 ar
    31    22    23 1
    32    23    27 ar
    33    29    28 ar
    34    27    28 ar
    35     2    31 1
    36     5    32 1
    37     9    33 1
    38    10    34 1
    39    16    35 1
    40    18    36 1
    41    19    37 1
    42    22    38 1
    43    22    39 1
    44    25    40 1
    45    25    41 1
    46    26    42 1
    47    26    43 1
    48    27    44 1
    49    28    45 1
    50    29    46 1
    51    30    47 1
@<TRIPOS>SUBSTRUCTURE
     1 RL1         1 TEMP              0 ****  ****    0 ROOT
