@<TRIPOS>MOLECULE
RL3
   45    48     1     0     0
SMALL
bcc


@<TRIPOS>ATOM
      1 C01          0.0000     0.0000     0.0000 ca         1 RL3       0.244100
      2 C02          1.3850     0.0000     0.0000 ca         1 RL3      -0.297000
      3 C03          2.0810     0.0000     1.1960 ca         1 RL3       0.236100
      4 C04          1.3860     0.0020     2.4170 ca         1 RL3      -0.160900
      5 C05         -0.0050     0.0020     2.4230 ca         1 RL3      -0.029000
      6 C06         -0.7040     0.0060     1.2150 ca         1 RL3      -0.215600
      7 C07         -2.1770     0.0120     1.2140 c          1 RL3       0.625700
      8 O08         -2.7890    -0.8230     0.5770 o          1 RL3      -0.639100
      9 O09          3.4380    -0.0000     1.1900 oh         1 RL3      -0.450100
     10 O10         -0.6780    -0.0010    -1.1760 oh         1 RL3      -0.464100
     11 C11          2.1300     0.0010     3.6930 cc         1 RL3       0.136400
     12 N12          1.8780    -0.7900     4.7800 na         1 RL3       0.507800
     13 C13          2.8170    -0.4450     5.7220 cc         1 RL3      -0.279300
     14 N14          3.5700     0.5050     5.1870 nd         1 RL3      -0.076000
     15 N15          3.1660     0.7590     3.9930 nd         1 RL3      -0.271700
     16 C16          0.9510    -1.7540     5.0480 cc         1 RL3      -0.253300
     17 C17          0.9420    -2.3830     6.2430 cd         1 RL3       0.040100
     18 C18          1.8890    -2.0500     7.2270 cd         1 RL3      -0.117000
     19 C19          2.8210    -1.0920     6.9720 cc         1 RL3      -0.005000
     20 N20         -2.8480     0.9440     1.9210 n          1 RL3      -0.152800
     21 N21         -4.0840     3.3700     2.5160 n3         1 RL3      -0.544600
     22 C22         -4.5750     4.7440     2.3530 c3         1 RL3       0.188100
     23 Br1         -0.3520    -3.7150     6.5960 br         1 RL3      -0.081100
     24 C24         -2.1310     1.9140     2.7630 c3         1 RL3       0.039500
     25 C25         -2.6190     3.3220     2.4080 c3         1 RL3       0.137800
     26 C26         -4.7130     2.4680     1.5480 c3         1 RL3       0.137800
     27 C27         -4.3160     1.0230     1.8640 c3         1 RL3       0.039500
     28 H1           1.9250    -0.0030    -0.9390 ha         1 RL3       0.126000
     29 H2          -0.5430     0.0050     3.3630 ha         1 RL3       0.116000
     30 H3           3.7490    -0.4770     0.4380 ho         1 RL3       0.402000
     31 H4          -0.2330    -0.5540    -1.7950 ho         1 RL3       0.410000
     32 H5           0.2170    -2.0170     4.2970 h4         1 RL3       0.158000
     33 H6           1.8780    -2.5570     8.1850 ha         1 RL3       0.131000
     34 H7           3.5550    -0.8280     7.7230 ha         1 RL3       0.131000
     35 H9          -5.6520     4.7600     2.4730 h1         1 RL3       0.001700
     36 H10         -4.3170     5.1060     1.3650 h1         1 RL3       0.001700
     37 H11         -4.1200     5.3820     3.1010 h1         1 RL3       0.001700
     38 H12         -2.3370     1.7100     3.8070 h1         1 RL3       0.037700
     39 H13         -1.0660     1.8410     2.5750 h1         1 RL3       0.037700
     40 H14         -2.1840     4.0380     3.0940 h1         1 RL3       0.017700
     41 H15         -2.3250     3.5600     1.3930 h1         1 RL3       0.017700
     42 H16         -5.7900     2.5670     1.6110 h1         1 RL3       0.017700
     43 H17         -4.3800     2.7230     0.5490 h1         1 RL3       0.017700
     44 H18         -4.7320     0.7330     2.8210 h1         1 RL3       0.037700
     45 H19         -4.6850     0.3660     1.0860 h1         1 RL3       0.037700
@<TRIPOS>BOND
     1     1     2 ar  
     2     1     6 ar  
     3     1    10 1   
     4     2     3 ar  
     5     2    28 1   
     6     3     4 ar  
     7     3     9 1   
     8     4     5 ar  
     9     4    11 1   
    10     5     6 ar  
    11     5    29 1   
    12     6     7 1   
    13     7     8 2   
    14     7    20 1   
    15     9    30 1   
    16    10    31 1   
    17    11    12 1   
    18    11    15 2   
    19    12    13 1   
    20    12    16 1   
    21    13    14 2   
    22    13    19 1   
    23    14    15 1   
    24    16    17 2   
    25    16    32 1   
    26    17    18 1   
    27    17    23 1   
    28    18    19 2   
    29    18    33 1   
    30    19    34 1   
    31    20    24 1   
    32    20    27 1   
    33    21    22 1   
    34    21    25 1   
    35    21    26 1   
    36    22    35 1   
    37    22    36 1   
    38    22    37 1   
    39    24    25 1   
    40    24    38 1   
    41    24    39 1   
    42    25    40 1   
    43    25    41 1   
    44    26    27 1   
    45    26    42 1   
    46    26    43 1   
    47    27    44 1   
    48    27    45 1   
@<TRIPOS>SUBSTRUCTURE
     1 RL3         1 TEMP              0 ****  ****    0 ROOT
