@<TRIPOS>MOLECULE
molecule
   41    43     1     0     0
SMALL
bcc


@<TRIPOS>ATOM
      1 N10          0.0000     0.0000     0.0000 ns         1 RLI      -0.533400
      2 O10          1.9550     0.0010    -1.0500 o          1 RLI      -0.526100
      3 S10         -2.4490    -0.0060    -1.3680 ss         1 RLI      -0.280300
      4 C11          3.6050     0.0010     1.0250 c3         1 RLI      -0.076100
      5 N11         -0.1520    -0.0100    -2.3840 nc         1 RLI      -0.677000
      6 O11        -10.0120    -1.3810    -9.9570 o          1 RLI      -0.833300
      7 S11         -5.6810    -0.0220    -5.1770 ss         1 RLI      -0.207300
      8 C12          1.3480     0.0000     0.0000 c          1 RLI       0.643100
      9 N12         -3.1810    -0.0220    -5.4160 nd         1 RLI      -0.785000
     10 O12         -9.1910     0.0180   -11.4740 o          1 RLI      -0.833300
     11 C13          2.1010     0.0000     1.3050 c3         1 RLI      -0.158400
     12 N13         -4.2180    -0.0310    -7.5630 nu         1 RLI      -0.737300
     13 C14         -0.6940    -0.0050    -1.2040 cd         1 RLI       0.584300
     14 C15         -0.9660    -0.0140    -3.4180 cc         1 RLI       0.419600
     15 C16         -0.4620    -0.0190    -4.8380 c3         1 RLI      -0.107400
     16 C17         -2.2810    -0.0130    -3.1220 cd         1 RLI      -0.168900
     17 C18         -3.3900    -0.0180    -4.1000 cd         1 RLI       0.500800
     18 C19         -4.6830    -0.0170    -3.7250 cc         1 RLI      -0.248400
     19 C20         -4.2320    -0.0250    -6.1770 cc         1 RLI       0.755300
     20 C21         -5.4070    -0.1670    -8.2710 ca         1 RLI       0.098600
     21 C22         -5.5860     0.5220    -9.4690 ca         1 RLI      -0.187500
     22 C23         -6.7570     0.3900   -10.1680 ca         1 RLI      -0.077500
     23 C24         -7.7740    -0.4370    -9.6790 ca         1 RLI      -0.107600
     24 C25         -9.0340    -0.5820   -10.4300 c          1 RLI       0.881200
     25 C26         -7.5900    -1.1290    -8.4770 ca         1 RLI      -0.077500
     26 C27         -6.4150    -0.9960    -7.7840 ca         1 RLI      -0.187500
     27 HN10        -0.5000     0.0280     0.8660 hn         1 RLI       0.330500
     28 H11          3.8670    -0.8840     0.4570 hc         1 RLI       0.044700
     29 H11A         4.1470     0.0000     1.9630 hc         1 RLI       0.044700
     30 H11B         3.8660     0.8860     0.4580 hc         1 RLI       0.044700
     31 H13          1.8400    -0.8850     1.8730 hc         1 RLI       0.056200
     32 H13A         1.8390     0.8840     1.8730 hc         1 RLI       0.056200
     33 HN13        -3.3500     0.0490    -8.0550 hn         1 RLI       0.456800
     34 H16         -0.8220     0.8640    -5.3520 hc         1 RLI       0.056700
     35 H16A        -0.8220    -0.9050    -5.3460 hc         1 RLI       0.056700
     36 H16B         0.6210    -0.0190    -4.8360 hc         1 RLI       0.056700
     37 H19         -5.0470    -0.0130    -2.7050 h4         1 RLI       0.171000
     38 H22         -4.7990     1.1620    -9.8470 ha         1 RLI       0.119000
     39 H23         -6.8950     0.9260   -11.0990 ha         1 RLI       0.157000
     40 H26         -8.3740    -1.7720    -8.0960 ha         1 RLI       0.157000
     41 H27         -6.2720    -1.5320    -6.8530 ha         1 RLI       0.119000
@<TRIPOS>BOND
     1    13     1 1
     2     1     8 1
     3     1    27 1
     4     2     8 2
     5    16     3 1
     6     3    13 1
     7    11     4 1
     8     4    28 1
     9     4    29 1
    10     4    30 1
    11    14     5 1
    12     5    13 2
    13    24     6 1
    14     7    19 1
    15     7    18 1
    16     8    11 1
    17    19     9 2
    18     9    17 1
    19    10    24 1
    20    11    31 1
    21    11    32 1
    22    12    20 1
    23    12    19 1
    24    12    33 1
    25    16    14 2
    26    15    14 1
    27    15    34 1
    28    15    35 1
    29    15    36 1
    30    17    16 1
    31    18    17 2
    32    18    37 1
    33    26    20 ar
    34    20    21 ar
    35    21    22 ar
    36    21    38 1
    37    23    22 ar
    38    22    39 1
    39    25    23 ar
    40    23    24 1
    41    26    25 ar
    42    25    40 1
    43    26    41 1
@<TRIPOS>SUBSTRUCTURE
     1 RLI         1 TEMP              0 ****  ****    0 ROOT
