@<TRIPOS>MOLECULE
RLI
   41    43     1     0     0
SMALL
bcc


@<TRIPOS>ATOM
      1 N10          0.0000     0.0000     0.0000 ns         1 RLI      -0.075400
      2 O10          1.9550     0.0010    -1.0500 o          1 RLI      -0.567100
      3 S10         -2.4490    -0.0060    -1.3680 ss         1 RLI      -0.360300
      4 C11          3.6050     0.0010     1.0250 c3         1 RLI       0.020900
      5 N11         -0.1520    -0.0100    -2.3840 nc         1 RLI      -0.538000
      6 O11        -10.0120    -1.3810    -9.9570 o          1 RLI      -0.879800
      7 S11         -5.6810    -0.0220    -5.1770 ss         1 RLI      -0.316300
      8 C12          1.3480     0.0000     0.0000 c          1 RLI       0.533100
      9 N12         -3.1810    -0.0220    -5.4160 nd         1 RLI      -0.699000
     10 O12         -9.1910     0.0180   -11.4740 o          1 RLI      -0.879800
     11 C13          2.1010     0.0000     1.3050 c3         1 RLI      -0.096400
     12 N13         -4.2180    -0.0310    -7.5630 nu         1 RLI      -0.227300
     13 C14         -0.6940    -0.0050    -1.2040 cd         1 RLI       0.406300
     14 C15         -0.9660    -0.0140    -3.4180 cc         1 RLI       0.364600
     15 C16         -0.4620    -0.0190    -4.8380 c3         1 RLI      -0.022400
     16 C17         -2.2810    -0.0130    -3.1220 cd         1 RLI      -0.129900
     17 C18         -3.3900    -0.0180    -4.1000 cd         1 RLI       0.482800
     18 C19         -4.6830    -0.0170    -3.7250 cc         1 RLI      -0.193400
     19 C20         -4.2320    -0.0250    -6.1770 cc         1 RLI       0.590300
     20 C21         -5.4070    -0.1670    -8.2710 ca         1 RLI      -0.085400
     21 C22         -5.5860     0.5220    -9.4690 ca         1 RLI      -0.157500
     22 C23         -6.7570     0.3900   -10.1680 ca         1 RLI      -0.053000
     23 C24         -7.7740    -0.4370    -9.6790 ca         1 RLI      -0.094600
     24 C25         -9.0340    -0.5820   -10.4300 c          1 RLI       0.970200
     25 C26         -7.5900    -1.1290    -8.4770 ca         1 RLI      -0.053000
     26 C27         -6.4150    -0.9960    -7.7840 ca         1 RLI      -0.157500
     27 HN10        -0.5000     0.0280     0.8660 hn         1 RLI       0.168500
     28 H11          3.8670    -0.8840     0.4570 hc         1 RLI       0.009367
     29 H11A         4.1470     0.0000     1.9630 hc         1 RLI       0.009367
     30 H11B         3.8660     0.8860     0.4580 hc         1 RLI       0.009367
     31 H13          1.8400    -0.8850     1.8730 hc         1 RLI       0.022200
     32 H13A         1.8390     0.8840     1.8730 hc         1 RLI       0.022200
     33 HN13        -3.3500     0.0490    -8.0550 hn         1 RLI       0.281800
     34 H16         -0.8220     0.8640    -5.3520 hc         1 RLI       0.021367
     35 H16A        -0.8220    -0.9050    -5.3460 hc         1 RLI       0.021367
     36 H16B         0.6210    -0.0190    -4.8360 hc         1 RLI       0.021367
     37 H19         -5.0470    -0.0130    -2.7050 h4         1 RLI       0.160000
     38 H22         -4.7990     1.1620    -9.8470 ha         1 RLI       0.105500
     39 H23         -6.8950     0.9260   -11.0990 ha         1 RLI       0.129000
     40 H26         -8.3740    -1.7720    -8.0960 ha         1 RLI       0.129000
     41 H27         -6.2720    -1.5320    -6.8530 ha         1 RLI       0.105500
@<TRIPOS>BOND
     1     1     8 1   
     2     1    13 1   
     3     1    27 1   
     4     2     8 2   
     5     3    13 1   
     6     3    16 1   
     7     4    11 1   
     8     4    28 1   
     9     4    29 1   
    10     4    30 1   
    11     5    13 2   
    12     5    14 1   
    13     6    24 1   
    14     7    18 1   
    15     7    19 1   
    16     8    11 1   
    17     9    17 1   
    18     9    19 2   
    19    10    24 1   
    20    11    31 1   
    21    11    32 1   
    22    12    19 1   
    23    12    20 1   
    24    12    33 1   
    25    14    15 1   
    26    14    16 2   
    27    15    34 1   
    28    15    35 1   
    29    15    36 1   
    30    16    17 1   
    31    17    18 2   
    32    18    37 1   
    33    20    21 ar  
    34    20    26 ar  
    35    21    22 ar  
    36    21    38 1   
    37    22    23 ar  
    38    22    39 1   
    39    23    24 1   
    40    23    25 ar  
    41    25    26 ar  
    42    25    40 1   
    43    26    41 1   
@<TRIPOS>SUBSTRUCTURE
     1 RLI         1 TEMP              0 ****  ****    0 ROOT
