@<TRIPOS>MOLECULE
molecule
   42    43     1     0     0
SMALL
bcc


@<TRIPOS>ATOM
      1 C1           0.0000     0.0000     0.0000 ca         1 RLJ      -0.132000
      2 F1           1.2030    -0.0030     4.7870 f          1 RLJ      -0.215633
      3 C2           1.3770     0.0000     0.0000 ca         1 RLJ      -0.079000
      4 F2           2.9220     1.1400     3.8060 f          1 RLJ      -0.215633
      5 C3           2.0740     0.0000     1.2120 ca         1 RLJ       0.058000
      6 F3           2.9210    -1.1450     3.8050 f          1 RLJ      -0.215633
      7 C4           1.3700    -0.0010     2.4190 ca         1 RLJ      -0.169300
      8 C5          -0.6970    -0.0010     1.2050 ca         1 RLJ      -0.042400
      9 C6          -0.0070    -0.0020     2.4120 ca         1 RLJ      -0.066000
     10 C7           2.1180    -0.0020     3.7280 c3         1 RLJ       0.675200
     11 C8           3.5060    -0.0010     1.2160 cg         1 RLJ       0.220800
     12 N8           4.6420     0.0120     1.2030 n1         1 RLJ      -0.324800
     13 N9          -2.0930    -0.0000     1.2010 ns         1 RLJ      -0.386100
     14 C10         -2.7640     0.6730     0.2450 c          1 RLJ       0.600100
     15 O10         -2.1580     1.2090    -0.6590 o          1 RLJ      -0.610100
     16 C11         -4.2670     0.7590     0.2990 c3         1 RLJ       0.119800
     17 O11         -4.6910     0.8340     1.6620 oh         1 RLJ      -0.584800
     18 C12         -4.8750    -0.4830    -0.3560 c3         1 RLJ      -0.164100
     19 C13         -4.7330     2.0090    -0.4500 c3         1 RLJ      -0.333600
     20 O14         -6.1600     2.0920    -0.3980 os         1 RLJ      -0.206900
     21 C16         -6.7380     3.1510    -1.0200 ca         1 RLJ       0.126100
     22 C17         -8.1210     3.2900    -1.0070 ca         1 RLJ      -0.129500
     23 C18         -8.7120     4.3640    -1.6360 ca         1 RLJ      -0.075500
     24 C19         -7.9200     5.3120    -2.2880 ca         1 RLJ      -0.233000
     25 C20         -6.5300     5.1680    -2.2970 ca         1 RLJ      -0.075500
     26 C21         -5.9460     4.0950    -1.6610 ca         1 RLJ      -0.129500
     27 C22         -8.5300     6.4300    -2.9430 cg         1 RLJ       0.590800
     28 N22         -8.8750     7.0170    -3.1980 n1         1 RLJ      -0.461800
     29 H1          -0.8620     0.1570    -0.6370 ha         1 RLJ       0.215000
     30 H2           1.7410     0.1310    -1.0120 ha         1 RLJ       0.162000
     31 H6          -0.3690     0.0360     3.4320 ha         1 RLJ       0.167000
     32 HN9         -2.5800     0.8710     1.1330 hn         1 RLJ       0.320500
     33 HO11        -4.4530    -0.0130     1.9990 ho         1 RLJ       0.418000
     34 H12         -4.9430    -0.1010    -1.3670 hc         1 RLJ       0.056367
     35 H12A        -4.1710    -1.3050    -0.4200 hc         1 RLJ       0.056367
     36 H12B        -5.8860    -0.8550    -0.2420 hc         1 RLJ       0.056367
     37 H13         -4.6520     2.1350    -1.5230 h1         1 RLJ       0.189200
     38 H13A        -5.6970     2.1190     0.0320 h1         1 RLJ       0.189200
     39 H17         -8.7180     2.5770    -0.4520 ha         1 RLJ       0.166500
     40 H18         -9.7670     4.6090    -1.5940 ha         1 RLJ       0.148500
     41 H20         -6.0380     5.8860    -2.9420 ha         1 RLJ       0.148500
     42 H21         -4.8630     4.1020    -1.6810 ha         1 RLJ       0.166500
@<TRIPOS>BOND
     1     1     3 ar
     2     1     8 ar
     3     2    10 1
     4     3     5 ar
     5     4    10 1
     6     5     7 ar
     7     5    11 1
     8     6    10 1
     9     7     9 ar
    10     7    10 1
    11     8     9 ar
    12     8    13 1
    13    11    12 3
    14    13    14 1
    15    14    15 2
    16    14    16 1
    17    16    17 1
    18    16    18 1
    19    16    19 1
    20    19    20 1
    21    20    21 1
    22    21    22 ar
    23    21    26 ar
    24    22    23 ar
    25    23    24 ar
    26    24    25 ar
    27    24    27 1
    28    25    26 ar
    29    27    28 3
    30     1    29 1
    31     3    30 1
    32     9    31 1
    33    13    32 1
    34    17    33 1
    35    18    34 1
    36    18    35 1
    37    18    36 1
    38    19    37 1
    39    19    38 1
    40    22    39 1
    41    23    40 1
    42    25    41 1
    43    26    42 1
@<TRIPOS>SUBSTRUCTURE
     1 RLJ         1 TEMP              0 ****  ****    0 ROOT
