@<TRIPOS>MOLECULE
RLJ
   42    43     1     0     0
SMALL
bcc


@<TRIPOS>ATOM
      1 C1          0.3420    0.3890    0.0140 ca        1 RLJ     -0.140000
      2 F1          1.0690   -0.8230    4.8580 f         1 RLJ     -0.229633
      3 C2          1.7120    0.1950    0.1480 ca        1 RLJ     -0.071000
      4 F2          2.9060    0.2110    4.3730 f         1 RLJ     -0.229633
      5 C3          2.2770   -0.1570    1.3820 ca        1 RLJ      0.005000
      6 F3          2.6740   -1.8940    3.8810 f         1 RLJ     -0.229633
      7 C4          1.4360   -0.3110    2.4950 ca        1 RLJ     -0.101300
      8 C5         -0.5100    0.2350    1.1290 ca        1 RLJ      0.090600
      9 C6          0.0650   -0.1170    2.3760 ca        1 RLJ     -0.148000
     10 C7          2.0080   -0.6940    3.8620 c3        1 RLJ      0.686200
     11 C8          3.6820   -0.3460    1.4700 cg        1 RLJ      0.218800
     12 N8          4.8340   -0.4990    1.5300 n1        1 RLJ     -0.327800
     13 N9         -1.9010    0.3880    1.0610 n         1 RLJ     -0.449100
     14 C10        -2.6300    0.9200    0.0110 c         1 RLJ      0.677100
     15 O10        -2.1300    1.2790   -1.0690 o         1 RLJ     -0.587100
     16 C11        -4.1650    0.9920    0.1980 c3        1 RLJ      0.092800
     17 O11        -4.4350    1.2860    1.5620 oh        1 RLJ     -0.605800
     18 C12        -4.7690   -0.3480   -0.1960 c3        1 RLJ     -0.128100
     19 C13        -4.6890    2.1260   -0.7030 c3        1 RLJ      0.105400
     20 O14        -6.0880    2.2270   -0.4080 os        1 RLJ     -0.347900
     21 C16        -6.7760    3.2160   -1.0830 ca        1 RLJ      0.149100
     22 C17        -8.1400    3.3140   -0.7460 ca        1 RLJ     -0.184000
     23 C18        -8.9260    4.2730   -1.3690 ca        1 RLJ     -0.056000
     24 C19        -8.3650    5.1350   -2.3260 ca        1 RLJ     -0.050000
     25 C20        -7.0070    5.0290   -2.6540 ca        1 RLJ     -0.056000
     26 C21        -6.2070    4.0700   -2.0350 ca        1 RLJ     -0.184000
     27 C22        -9.1750    6.1140   -2.9590 cg        1 RLJ      0.234800
     28 N22        -9.8400    6.9160   -3.4780 n1        1 RLJ     -0.360800
     29 H1         -0.0650    0.6670   -0.9740 ha        1 RLJ      0.185000
     30 H2          2.3640    0.3200   -0.7320 ha        1 RLJ      0.158000
     31 H6         -0.5720   -0.2420    3.2690 ha        1 RLJ      0.160000
     32 HN9        -2.4020    0.2390    1.9150 hn        1 RLJ      0.343500
     33 HO11       -5.3910    1.4140    1.6360 ho        1 RLJ      0.439000
     34 H12        -5.8840   -0.2670   -0.1970 hc        1 RLJ      0.062700
     35 H12A       -4.4650   -1.1350    0.5350 hc        1 RLJ      0.062700
     36 H12B       -4.4260   -0.6390   -1.2170 hc        1 RLJ      0.062700
     37 H13        -4.5350    1.8670   -1.7820 h1        1 RLJ      0.072700
     38 H13A       -4.1770    3.0900   -0.4500 h1        1 RLJ      0.072700
     39 H17        -8.5650    2.6320    0.0040 ha        1 RLJ      0.153000
     40 H18        -9.9940    4.3580   -1.1130 ha        1 RLJ      0.150000
     41 H20        -6.5670    5.7050   -3.4040 ha        1 RLJ      0.150000
     42 H21        -5.1430    3.9980   -2.3040 ha        1 RLJ      0.153000
@<TRIPOS>BOND
     1    1    3 ar  
     2    1    8 ar  
     3    1   29 1   
     4    2   10 1   
     5    3    5 ar  
     6    3   30 1   
     7    4   10 1   
     8    5    7 ar  
     9    5   11 1   
    10    6   10 1   
    11    7    9 ar  
    12    7   10 1   
    13    8    9 ar  
    14    8   13 1   
    15    9   31 1   
    16   11   12 3   
    17   13   14 1   
    18   13   32 1   
    19   14   15 2   
    20   14   16 1   
    21   16   17 1   
    22   16   18 1   
    23   16   19 1   
    24   17   33 1   
    25   18   34 1   
    26   18   35 1   
    27   18   36 1   
    28   19   20 1   
    29   19   37 1   
    30   19   38 1   
    31   20   21 1   
    32   21   22 ar  
    33   21   26 ar  
    34   22   23 ar  
    35   22   39 1   
    36   23   24 ar  
    37   23   40 1   
    38   24   25 ar  
    39   24   27 1   
    40   25   26 ar  
    41   25   41 1   
    42   26   42 1   
    43   27   28 3   
@<TRIPOS>SUBSTRUCTURE
     1 RLJ         1 TEMP              0 ****  ****    0 ROOT
