@<TRIPOS>MOLECULE
molecule
   48    50     1     0     0
SMALL
bcc


@<TRIPOS>ATOM
      1 CAA          1.5300     0.0000     0.0000 c3         1 RLL      -0.087100
      2 NAB         -2.3770     8.0160    -3.3040 n1         1 RLL      -0.325800
      3 NAC         -2.6090    -7.8330    -2.9820 n1         1 RLL      -0.397800
      4 OAD         -0.7920     1.1760    -1.8860 o          1 RLL      -0.588100
      5 OAE         -0.4760     0.0000     1.3480 oh         1 RLL      -0.666800
      6 FAF         -3.2780     6.2790     1.2330 f          1 RLL      -0.215967
      7 FAG         -4.1690     6.8820    -0.7820 f          1 RLL      -0.215967
      8 FAH         -2.2830     7.9160    -0.0110 f          1 RLL      -0.215967
      9 CAI         -2.0730     7.0630    -2.7660 cg         1 RLL       0.222800
     10 CAK          0.8710    -7.1750     1.2340 ca         1 RLL      -0.132000
     11 CAL          1.2510    -5.9480     1.7710 ca         1 RLL      -0.174000
     12 CAM         -0.5640     3.7550    -2.0260 ca         1 RLL      -0.112000
     13 CAN         -0.9170     4.9020    -2.7000 ca         1 RLL      -0.074000
     14 CAO         -1.5890    -4.8690    -2.2460 ca         1 RLL      -0.091000
     15 CAP         -1.1940    -3.6640    -1.6880 ca         1 RLL      -0.267000
     16 CAQ          0.0850    -7.2370     0.1220 ca         1 RLL      -0.106000
     17 CAR          0.8490    -4.7780     1.2010 ca         1 RLL      -0.093000
     18 CAS         -1.7750     4.5160    -0.0840 ca         1 RLL      -0.117000
     19 CAT         -0.5110    -1.2480    -0.7210 c3         1 RLL       0.107400
     20 NAU         -0.6310     2.3920    -0.0370 ns         1 RLL      -0.485100
     21 OAV         -0.0340    -2.4160    -0.0480 os         1 RLL      -0.296900
     22 CAW         -0.5020     1.2310    -0.7090 c          1 RLL       0.592100
     23 CAX         -0.9900     3.5560    -0.7170 ca         1 RLL       0.092600
     24 CAY         -1.7050     5.8680    -2.0680 ca         1 RLL       0.016000
     25 CAZ         -1.1910    -6.0770    -1.6830 ca         1 RLL      -0.061000
     26 CBA         -0.3980    -3.6160    -0.5640 ca         1 RLL       0.170100
     27 CBB         -2.1310     5.6650    -0.7520 ca         1 RLL      -0.118300
     28 CBC         -0.3470    -6.0540    -0.4900 ca         1 RLL       0.049000
     29 CBD          0.0390    -4.8070     0.0550 ca         1 RLL      -0.038000
     30 CBE          0.0000     0.0000     0.0000 c3         1 RLL       0.163800
     31 CBF         -2.9810     6.7040    -0.0660 c3         1 RLL       0.674200
     32 HAA          2.0850    -0.6660     0.6490 hc         1 RLL       0.056700
     33 HAAA         2.1430     0.0910    -0.8880 hc         1 RLL       0.056700
     34 HAAB         1.6420     0.9420     0.5230 hc         1 RLL       0.056700
     35 HOAE        -1.3720     0.0520     1.6380 ho         1 RLL       0.452000
     36 HAK          1.6410    -7.7970     1.6730 ha         1 RLL       0.148000
     37 HAL          1.9910    -5.9000     2.5610 ha         1 RLL       0.131000
     38 HAM          0.0510     2.9940    -2.4900 ha         1 RLL       0.171000
     39 HAN         -0.4470     5.1520    -3.6430 ha         1 RLL       0.157000
     40 HAO         -2.4890    -4.5660    -2.7680 ha         1 RLL       0.149000
     41 HAP         -1.7250    -2.8180    -2.1070 ha         1 RLL       0.140000
     42 HAQ         -0.3400    -8.2330     0.0860 ha         1 RLL       0.151000
     43 HAR          1.0870    -3.9410     1.8470 ha         1 RLL       0.149000
     44 HAS         -2.1380     4.0960     0.8460 ha         1 RLL       0.163000
     45 HAT         -0.4260    -1.1770    -1.7990 h1         1 RLL       0.053700
     46 HATA        -1.5940    -1.2360    -0.7030 h1         1 RLL       0.053700
     47 HNAU        -0.2810     2.0980     0.8530 hn         1 RLL       0.359500
     48 CAJ         -2.3010    -7.1540    -2.4510 cg         1 RLL       0.343800
@<TRIPOS>BOND
     1     1    30 1
     2     2     9 3
     3     3    48 3
     4     4    22 2
     5     5    30 1
     6     6    31 1
     7     7    31 1
     8     8    31 1
     9     9    24 1
    10    48    25 1
    11    10    11 ar
    12    10    16 ar
    13    11    17 ar
    14    12    13 ar
    15    12    23 ar
    16    13    24 ar
    17    14    15 ar
    18    14    25 ar
    19    15    26 ar
    20    16    28 ar
    21    17    29 ar
    22    18    23 ar
    23    18    27 ar
    24    19    21 1
    25    19    30 1
    26    20    22 1
    27    20    23 1
    28    21    26 1
    29    22    30 1
    30    24    27 ar
    31    25    28 ar
    32    26    29 ar
    33    27    31 1
    34    28    29 ar
    35     1    32 1
    36     1    33 1
    37     1    34 1
    38     5    35 1
    39    10    36 1
    40    11    37 1
    41    12    38 1
    42    13    39 1
    43    14    40 1
    44    15    41 1
    45    16    42 1
    46    17    43 1
    47    18    44 1
    48    19    45 1
    49    19    46 1
    50    20    47 1
@<TRIPOS>SUBSTRUCTURE
     1 RLL         1 TEMP              0 ****  ****    0 ROOT
