@<TRIPOS>MOLECULE
RLM
   26    27     1     0     0
SMALL
bcc


@<TRIPOS>ATOM
      1 CAI          0.0000     0.0000     0.0000 ca         1 RLM      -0.141500
      2 CAN          1.3820     0.0000     0.0000 ca         1 RLM      -0.034600
      3 ClC          2.2500     0.0020    -1.5050 cl         1 RLM       0.000100
      4 CAP          2.0770     0.0000     1.2010 ca         1 RLM       0.095100
      5 OAA          3.4380     0.0010     1.2000 oh         1 RLM      -0.482100
      6 CAO          1.3850    -0.0010     2.4030 ca         1 RLM      -0.034600
      7 ClD          2.2540    -0.0020     3.9060 cl         1 RLM       0.000100
      8 CAJ          0.0030    -0.0010     2.4050 ca         1 RLM      -0.141500
      9 CAQ         -0.6930    -0.0010     1.2030 ca         1 RLM       0.029600
     10 NAK         -2.0920    -0.0010     1.2040 nu         1 RLM      -0.226000
     11 CAM         -2.7910    -0.6490     2.2290 ca         1 RLM       0.006600
     12 CAG         -4.0820    -0.2490     2.5510 ca         1 RLM      -0.141000
     13 CAE         -4.7710    -0.8890     3.5630 ca         1 RLM      -0.099000
     14 CAL         -4.1740    -1.9310     4.2560 ca         1 RLM       0.089100
     15 OAB         -4.8530    -2.5610     5.2530 oh         1 RLM      -0.498100
     16 CAF         -2.8860    -2.3320     3.9350 ca         1 RLM      -0.099000
     17 CAH         -2.1970    -1.6970     2.9210 ca         1 RLM      -0.141000
     18 HAI         -0.5420     0.0000    -0.9380 ha         1 RLM       0.131500
     19 HAA          3.7520    -0.8880     1.1990 ho         1 RLM       0.405000
     20 HAJ         -0.5380    -0.0020     3.3440 ha         1 RLM       0.131500
     21 HAK         -2.5930     0.4640     0.4740 hn         1 RLM       0.288800
     22 HAG         -4.5480     0.5650     2.0090 ha         1 RLM       0.117500
     23 HAH         -1.1900    -2.0100     2.6710 ha         1 RLM       0.117500
     24 HAE         -5.7770    -0.5780     3.8150 ha         1 RLM       0.113500
     25 HAB         -5.3370    -3.2860     4.8940 ho         1 RLM       0.399000
     26 HAF         -2.4220    -3.1480     4.4770 ha         1 RLM       0.113500
@<TRIPOS>BOND
     1     1     2 ar  
     2     1     9 ar  
     3     1    18 1   
     4     2     3 1   
     5     2     4 ar  
     6     4     5 1   
     7     4     6 ar  
     8     5    19 1   
     9     6     7 1   
    10     6     8 ar  
    11     8     9 ar  
    12     8    20 1   
    13     9    10 1   
    14    10    11 1   
    15    10    21 1   
    16    11    12 ar  
    17    11    17 ar  
    18    12    13 ar  
    19    12    22 1   
    20    13    14 ar  
    21    13    24 1   
    22    14    15 1   
    23    14    16 ar  
    24    15    25 1   
    25    16    17 ar  
    26    16    26 1   
    27    17    23 1   
@<TRIPOS>SUBSTRUCTURE
     1 RLM         1 TEMP              0 ****  ****    0 ROOT
