@<TRIPOS>MOLECULE
molecule
   26    27     1     0     0
SMALL
bcc


@<TRIPOS>ATOM
      1 CAI          0.0000     0.0000     0.0000 ca         1 RLM      -0.165000
      2 CAN          1.3820     0.0000     0.0000 ca         1 RLM       0.039400
      3 ClC          2.2500     0.0020    -1.5050 cl         1 RLM      -0.079900
      4 CAP          2.0770     0.0000     1.2010 ca         1 RLM       0.082100
      5 OAA          3.4380     0.0010     1.2000 oh         1 RLM      -0.498100
      6 CAO          1.3850    -0.0010     2.4030 ca         1 RLM       0.039400
      7 ClD          2.2540    -0.0020     3.9060 cl         1 RLM      -0.079900
      8 CAJ          0.0030    -0.0010     2.4050 ca         1 RLM      -0.165000
      9 CAQ         -0.6930    -0.0010     1.2030 ca         1 RLM       0.184600
     10 NAK         -2.0920    -0.0010     1.2040 nu         1 RLM      -0.681000
     11 CAM         -2.7910    -0.6490     2.2290 ca         1 RLM       0.163600
     12 CAG         -4.0820    -0.2490     2.5510 ca         1 RLM      -0.169000
     13 CAE         -4.7710    -0.8890     3.5630 ca         1 RLM      -0.117500
     14 CAL         -4.1740    -1.9310     4.2560 ca         1 RLM       0.071100
     15 OAB         -4.8530    -2.5610     5.2530 oh         1 RLM      -0.519100
     16 CAF         -2.8860    -2.3320     3.9350 ca         1 RLM      -0.117500
     17 CAH         -2.1970    -1.6970     2.9210 ca         1 RLM      -0.169000
     18 HAI         -0.5420     0.0000    -0.9380 ha         1 RLM       0.159500
     19 HAA          3.7520    -0.8880     1.1990 ho         1 RLM       0.423000
     20 HAJ         -0.5380    -0.0020     3.3440 ha         1 RLM       0.159500
     21 HAK         -2.5930     0.4640     0.4740 hn         1 RLM       0.453800
     22 HAG         -4.5480     0.5650     2.0090 ha         1 RLM       0.141500
     23 HAH         -1.1900    -2.0100     2.6710 ha         1 RLM       0.141500
     24 HAE         -5.7770    -0.5780     3.8150 ha         1 RLM       0.144000
     25 HAB         -5.3370    -3.2860     4.8940 ho         1 RLM       0.416000
     26 HAF         -2.4220    -3.1480     4.4770 ha         1 RLM       0.144000
@<TRIPOS>BOND
     1     1     2 ar
     2     1     9 ar
     3     2     3 1
     4     2     4 ar
     5     4     5 1
     6     4     6 ar
     7     6     7 1
     8     6     8 ar
     9     8     9 ar
    10     9    10 1
    11    10    11 1
    12    11    12 ar
    13    11    17 ar
    14    12    13 ar
    15    13    14 ar
    16    14    15 1
    17    14    16 ar
    18    16    17 ar
    19     1    18 1
    20     5    19 1
    21     8    20 1
    22    10    21 1
    23    12    22 1
    24    17    23 1
    25    13    24 1
    26    15    25 1
    27    16    26 1
@<TRIPOS>SUBSTRUCTURE
     1 RLM         1 TEMP              0 ****  ****    0 ROOT
