@<TRIPOS>MOLECULE
RLP
   44    45     1     0     0
SMALL
bcc


@<TRIPOS>ATOM
      1 O19         0.1860    0.4950    0.1340 o         1 RLP     -0.539000
      2 C18         1.1840    0.7650   -0.5420 c         1 RLP      0.633100
      3 O18         1.6990    2.0000   -0.2870 oh        1 RLP     -0.605100
      4 C17         1.8280   -0.0990   -1.5830 c3        1 RLP     -0.172400
      5 C16         3.2680   -0.4370   -1.2250 c3        1 RLP     -0.085700
      6 C7          4.1590   -0.3430   -2.4240 cc        1 RLP      0.170600
      7 C8          4.4620    1.0320   -2.8700 cd        1 RLP      0.251400
      8 O8          3.9360    2.0510   -2.3600 o         1 RLP     -0.439000
      9 N9          5.3550    1.1830   -3.9520 n         1 RLP     -0.165100
     10 C10         5.8850    0.0420   -4.5930 cd        1 RLP      0.135400
     11 C5          5.4700   -1.2620   -4.0780 cd        1 RLP      0.082800
     12 N6          4.6450   -1.4200   -3.0140 nc        1 RLP     -0.491000
     13 C4          5.9980   -2.4580   -4.7590 c         1 RLP      0.638000
     14 O4          5.7410   -3.6420   -4.4540 o         1 RLP     -0.666500
     15 N3          6.8560   -2.2320   -5.8400 n         1 RLP     -0.621500
     16 C2          7.2180   -0.9320   -6.2750 c         1 RLP      0.848900
     17 O2          8.0020   -0.8590   -7.2530 o         1 RLP     -0.683500
     18 N1          6.7180    0.2070   -5.6350 nc        1 RLP     -0.495400
     19 C11         5.7440    2.5130   -4.3680 c3        1 RLP      0.035300
     20 C12         7.1960    2.9200   -4.0470 c3        1 RLP      0.105100
     21 O12         7.3850    2.7880   -2.6480 oh        1 RLP     -0.592800
     22 C13         7.4550    4.3960   -4.4290 c3        1 RLP      0.109100
     23 O13         6.7640    4.8140   -5.5970 oh        1 RLP     -0.604800
     24 C14         8.9490    4.6060   -4.7420 c3        1 RLP      0.144100
     25 O14         9.6590    4.2860   -3.5540 oh        1 RLP     -0.614800
     26 C15         9.2090    6.0580   -5.1490 c3        1 RLP      0.094400
     27 O15        10.6070    6.1690   -5.3750 oh        1 RLP     -0.617800
     28 H171        1.2280   -1.0380   -1.7040 hc        1 RLP      0.078700
     29 H172        1.7960    0.4630   -2.5560 hc        1 RLP      0.078700
     30 H161        3.6540    0.2850   -0.4540 hc        1 RLP      0.057700
     31 H162        3.3100   -1.4640   -0.7760 hc        1 RLP      0.057700
     32 HO8         2.4770    2.1590   -0.8530 ho        1 RLP      0.466000
     33 HN3         7.2350   -3.0130   -6.3230 hn        1 RLP      0.320500
     34 H111        5.6180    2.5880   -5.4870 h1        1 RLP      0.073200
     35 H112        5.0550    3.2490   -3.8620 h1        1 RLP      0.073200
     36 H121        7.9180    2.2600   -4.6030 h1        1 RLP      0.082700
     37 H12O        8.3320    2.8960   -2.4860 ho        1 RLP      0.415000
     38 H131        7.1590    5.0480   -3.5580 h1        1 RLP      0.054700
     39 H13O        5.8210    4.7360   -5.4070 ho        1 RLP      0.411000
     40 H141        9.2690    3.9190   -5.5740 h1        1 RLP      0.071700
     41 H14O       10.5920    4.4500   -3.7450 ho        1 RLP      0.422000
     42 H151        8.6320    6.2960   -6.0800 h1        1 RLP      0.042700
     43 H152        8.9070    6.7560   -4.3240 h1        1 RLP      0.042700
     44 H15O       10.7580    7.0440   -5.7490 ho        1 RLP      0.401000
@<TRIPOS>BOND
     1    1    2 2
     2    2    3 1
     3    2    4 1
     4    3   32 1
     5    4    5 1
     6    4   28 1
     7    4   29 1
     8    5    6 1
     9    5   30 1
    10    5   31 1
    11    6    7 2
    12    6   12 1
    13    7    8 1
    14    7    9 1
    15    9   10 1
    16    9   19 1
    17   10   11 1
    18   10   18 2
    19   11   12 2
    20   11   13 1
    21   13   14 2
    22   13   15 1
    23   15   16 1
    24   15   33 1
    25   16   17 2
    26   16   18 1
    27   19   20 1
    28   19   34 1
    29   19   35 1
    30   20   21 1
    31   20   22 1
    32   20   36 1
    33   21   37 1
    34   22   23 1
    35   22   24 1
    36   22   38 1
    37   23   39 1
    38   24   25 1
    39   24   26 1
    40   24   40 1
    41   25   41 1
    42   26   27 1
    43   26   42 1
    44   26   43 1
    45   27   44 1
@<TRIPOS>SUBSTRUCTURE
     1 RLP         1 TEMP              0 ****  ****    0 ROOT
