@<TRIPOS>MOLECULE
RLT
   55    56     1     0     0
SMALL
bcc


@<TRIPOS>ATOM
      1 CAA         0.1730    0.6030   -0.5190 c3        1 RLT     -0.167400
      2 CAB         8.4250   -2.2770   -0.6650 c1        1 RLT      0.079500
      3 CAC         6.9860   -2.0690   -3.3840 c3        1 RLT     -0.133100
      4 CAD         6.9640    0.2590   -4.2210 c3        1 RLT     -0.133100
      5 OAE        12.0380    2.6820   -1.6700 o         1 RLT     -0.462100
      6 OAF         4.3200   -0.9210   -3.4990 o         1 RLT     -0.372100
      7 OAG        11.1480   -2.4100   -1.3470 o         1 RLT     -0.356500
      8 CAJ         9.6470    7.6090   -5.2590 ca        1 RLT     -0.113500
      9 CAK         9.6660    5.5450   -6.3580 ca        1 RLT     -0.113500
     10 CAL        10.2880    6.8890   -4.1490 ca        1 RLT     -0.150500
     11 CAM         9.3300    5.0350   -5.1230 ca        1 RLT     -0.150500
     12 CAN        10.9880    4.6540   -3.1480 c3        1 RLT      0.201100
     13 NAO         2.6230    1.0970    0.2120 nc        1 RLT     -0.324000
     14 NAP         3.7830    0.8280   -0.2990 nc        1 RLT     -0.254000
     15 NAQ         9.0300    0.8240   -2.4480 nc        1 RLT     -0.552300
     16 NAR        10.1850    3.4050   -2.8880 n4        1 RLT     -0.646800
     17 NAS         5.9910   -0.2250   -1.9590 n4        1 RLT     -0.682800
     18 OAT         2.2350   -0.0210   -1.7050 os        1 RLT     -0.303800
     19 CAV         4.5510   -0.3860   -2.4300 c         1 RLT      0.519600
     20 CAW         1.6370    0.5950   -0.6090 cd        1 RLT      0.598700
     21 CAX         9.2160    6.9600   -6.4010 ca        1 RLT      0.173900
     22 CAY        10.2680    5.5220   -4.0960 ca        1 RLT     -0.198300
     23 CAZ        11.0810   -0.0010   -1.4220 cd        1 RLT      0.225900
     24 CBA         3.6110    0.1470   -1.4700 cd        1 RLT      0.249900
     25 CBB        10.3340    1.0370   -1.9780 cc        1 RLT     -0.166600
     26 CBC         8.4480   -0.3320   -2.2490 cd        1 RLT      0.330900
     27 CBD        10.4780   -1.3940   -1.3950 c         1 RLT      0.694700
     28 NBE         9.0240   -1.3940   -1.4460 n         1 RLT     -0.276900
     29 CBF         7.0830   -0.6020   -2.9530 c3        1 RLT      0.151900
     30 HAA        -0.1940    1.6630   -0.4550 hc        1 RLT      0.118033
     31 HAAA       -0.1470    0.0640    0.4140 hc        1 RLT      0.118033
     32 HAAB       -0.2830    0.1030   -1.4110 hc        1 RLT      0.118033
     33 HAB         5.0190   -3.3630   -0.5710 ha        1 RLT      0.002000
     34 HABA        5.1600   -2.7710   -0.8730 ha        1 RLT      0.002000
     35 HABB        7.3170   -2.2850   -0.6150 ha        1 RLT     -0.009500
     36 HAC         7.9440   -2.3620   -3.8840 hc        1 RLT      0.093033
     37 HACA        6.1590   -2.1970   -4.1300 hc        1 RLT      0.093033
     38 HACB        6.7930   -2.7710   -2.5370 hc        1 RLT      0.093033
     39 HAD         6.9380    1.3520   -3.9940 hc        1 RLT      0.093033
     40 HADA        7.8440    0.0460   -4.8780 hc        1 RLT      0.093033
     41 HADB        6.0390   -0.0140   -4.7900 hc        1 RLT      0.093033
     42 HOAH       12.7330    0.8960   -0.9450 ho        1 RLT      0.502000
     43 HAJ         9.5700    8.7050   -5.1730 ha        1 RLT      0.183000
     44 HAK         8.2710    5.1010   -4.8000 ha        1 RLT      0.145500
     45 HAL        10.7870    7.5060   -3.3840 ha        1 RLT      0.145500
     46 HAM        10.5160    5.2510   -6.9870 ha        1 RLT      0.183000
     47 HAN        11.9810    4.3290   -3.5830 hx        1 RLT      0.119700
     48 HANA       11.1840    5.1630   -2.1600 hx        1 RLT      0.119700
     49 HNAR        9.3370    3.6530   -2.3650 hn        1 RLT      0.474300
     50 HNAS        6.1270    0.7600   -1.6940 hn        1 RLT      0.469300
     51 CAU        10.9390    2.3650   -2.1240 c         1 RLT      0.585300
     52 HAR2        9.8870    3.0220   -3.8020 hn        1 RLT      0.474300
     53 HAS2        6.0890   -0.8070   -1.1150 hn        1 RLT      0.469300
     54 OAH        12.3080    0.0090   -0.9180 oh        1 RLT     -0.375100
     55 FAI         8.6660    7.5480   -7.4600 f         1 RLT     -0.073900
@<TRIPOS>BOND
     1    1   20 1   
     2    1   30 1   
     3    1   31 1   
     4    1   32 1   
     5    2   28 3   
     6    2   35 1   
     7    3   29 1   
     8    3   36 1   
     9    3   37 1   
    10    3   38 1   
    11    4   29 1   
    12    4   39 1   
    13    4   40 1   
    14    4   41 1   
    15    5   51 2   
    16    6   19 2   
    17    7   27 2   
    18    8   10 ar  
    19    8   21 ar  
    20    8   43 1   
    21    9   11 ar  
    22    9   21 ar  
    23    9   46 1   
    24   10   22 ar  
    25   10   45 1   
    26   11   22 ar  
    27   11   44 1   
    28   12   16 1   
    29   12   22 1   
    30   12   47 1   
    31   12   48 1   
    32   13   14 1   
    33   13   20 2   
    34   14   24 2   
    35   15   25 1   
    36   15   26 2   
    37   16   49 1   
    38   16   51 1   
    39   16   52 1   
    40   17   19 1   
    41   17   29 1   
    42   17   50 1   
    43   17   53 1   
    44   18   20 1   
    45   18   24 1   
    46   19   24 1   
    47   21   55 1   
    48   23   25 2   
    49   23   27 1   
    50   23   54 1   
    51   25   51 1   
    52   26   28 1   
    53   26   29 1   
    54   27   28 1   
    55   33   34 1   
    56   42   54 1   
@<TRIPOS>SUBSTRUCTURE
     1 RLT         1 TEMP              0 ****  ****    0 ROOT
