@<TRIPOS>MOLECULE
molecule
   44    45     1     0     0
SMALL
bcc


@<TRIPOS>ATOM
      1 O1           0.0000     0.0000     0.0000 os         1 RM0      -0.426600
      2 C2           1.4310     0.0000     0.0000 c3         1 RM0       0.138900
      3 C3           1.9360     0.0000     1.4450 c3         1 RM0       0.122800
      4 N4           1.3790    -1.1620     2.1540 n3         1 RM0      -0.729600
      5 C5          -0.0910    -1.1290     2.1340 c3         1 RM0       0.122800
      6 C6          -0.5750    -1.1190     0.6810 c3         1 RM0       0.138900
      7 C7           1.8860    -1.2310     3.5310 c3         1 RM0       0.161800
      8 C8           1.4890    -2.5710     4.1530 c3         1 RM0      -0.081400
      9 C9           2.0160    -2.6430     5.5880 c3         1 RM0      -0.084400
     10 C10          1.6210    -3.9830     6.2100 c3         1 RM0      -0.076400
     11 C11          2.1480    -4.0560     7.6450 c3         1 RM0      -0.123700
     12 C1           1.7590    -5.3760     8.2570 ca         1 RM0       0.413600
     13 N5           0.4920    -5.7360     8.2690 nb         1 RM0      -0.642000
     14 C12          0.1010    -6.8920     8.7940 ca         1 RM0       0.385000
     15 C13          1.0380    -7.7700     9.3540 ca         1 RM0       0.006800
     16 C14          2.3810    -7.4100     9.3530 ca         1 RM0      -0.146000
     17 C15          2.7390    -6.1940     8.7940 ca         1 RM0      -0.220300
     18 O16          0.6400    -8.9520     9.8910 oh         1 RM0      -0.506100
     19 C17         -1.3290    -7.2550     8.7840 ce         1 RM0       0.316200
     20 N18         -2.1970    -6.4470     8.2670 n2         1 RM0      -0.397200
     21 O19         -3.5700    -6.7950     8.2590 oh         1 RM0      -0.394500
     22 H1           1.7910    -0.8860    -0.5080 h1         1 RM0       0.052700
     23 H2           1.7910     0.8860    -0.5080 h1         1 RM0       0.052700
     24 H3           3.0170    -0.0600     1.4490 h1         1 RM0       0.043200
     25 H4           1.6170     0.9100     1.9380 h1         1 RM0       0.043200
     26 H6          -0.4780    -2.0080     2.6360 h1         1 RM0       0.043200
     27 H7          -0.4390    -0.2350     2.6360 h1         1 RM0       0.043200
     28 H8          -0.2690    -2.0350     0.1920 h1         1 RM0       0.052700
     29 H9          -1.6550    -1.0360     0.6620 h1         1 RM0       0.052700
     30 H10          1.4600    -0.4230     4.1140 h1         1 RM0       0.033700
     31 H11          2.9650    -1.1420     3.5240 h1         1 RM0       0.033700
     32 H12          1.9150    -3.3790     3.5710 hc         1 RM0       0.051200
     33 H13          0.4100    -2.6610     4.1600 hc         1 RM0       0.051200
     34 H14          1.5900    -1.8350     6.1700 hc         1 RM0       0.039700
     35 H15          3.0960    -2.5520     5.5810 hc         1 RM0       0.039700
     36 H16          2.0470    -4.7910     5.6280 hc         1 RM0       0.056200
     37 H17          0.5410    -4.0730     6.2180 hc         1 RM0       0.056200
     38 H18          1.7230    -3.2470     8.2270 hc         1 RM0       0.055200
     39 H19          3.2280    -3.9660     7.6370 hc         1 RM0       0.055200
     40 H20          3.1310    -8.0660     9.7780 ha         1 RM0       0.147000
     41 H21          3.7770    -5.8850     8.7780 ha         1 RM0       0.143000
     42 H22          0.8920    -8.9850    10.7990 ho         1 RM0       0.424000
     43 H23         -1.6520    -8.1970     9.2110 h4         1 RM0       0.019800
     44 H26         -4.0660    -6.1050     7.8500 ho         1 RM0       0.433000
@<TRIPOS>BOND
     1    21    20 1
     2    20    19 2
     3    19    14 1
     4    18    15 1
     5    14    15 ar
     6    14    13 ar
     7    15    16 ar
     8    13    12 ar
     9    16    17 ar
    10    12    17 ar
    11    12    11 1
    12    11    10 1
    13    10     9 1
    14     9     8 1
    15     8     7 1
    16     7     4 1
    17     5     4 1
    18     5     6 1
    19     4     3 1
    20     3     2 1
    21     6     1 1
    22     1     2 1
    23     2    22 1
    24     2    23 1
    25     3    24 1
    26     3    25 1
    27     5    26 1
    28     5    27 1
    29     6    28 1
    30     6    29 1
    31     7    30 1
    32     7    31 1
    33     8    32 1
    34     8    33 1
    35     9    34 1
    36     9    35 1
    37    10    36 1
    38    10    37 1
    39    11    38 1
    40    11    39 1
    41    16    40 1
    42    17    41 1
    43    18    42 1
    44    19    43 1
    45    21    44 1
@<TRIPOS>SUBSTRUCTURE
     1 RM0         1 TEMP              0 ****  ****    0 ROOT
