@<TRIPOS>MOLECULE
RM0
   44    46     1     0     0
SMALL
bcc


@<TRIPOS>ATOM
      1 O1           0.0000     0.0000     0.0000 os         1 RM0      -0.269000
      2 C2           1.4310     0.0000     0.0000 c3         1 RM0       0.064500
      3 C3           1.9360     0.0000     1.4450 c3         1 RM0      -0.128500
      4 N4           1.3790    -1.1620     2.1540 n3         1 RM0      -0.065000
      5 C5          -0.0910    -1.1290     2.1340 c3         1 RM0      -0.128500
      6 C6          -0.5750    -1.1190     0.6810 c3         1 RM0       0.064500
      7 C7           1.8860    -1.2310     3.5310 c3         1 RM0      -0.082000
      8 C8           1.4890    -2.5710     4.1530 c3         1 RM0      -0.116000
      9 C9           2.0160    -2.6430     5.5880 c3         1 RM0      -0.106000
     10 C10          1.6210    -3.9830     6.2100 c3         1 RM0      -0.107000
     11 C11          2.1480    -4.0560     7.6450 c3         1 RM0      -0.051000
     12 C1           1.7590    -5.3760     8.2570 c2         1 RM0      -0.078000
     13 N5           0.4920    -5.7360     8.2690 n2         1 RM0      -0.022000
     14 C12          0.1010    -6.8920     8.7940 c3         1 RM0      -0.153000
     15 C13          1.0380    -7.7700     9.3540 c2         1 RM0       0.115000
     16 C14          2.3810    -7.4100     9.3530 c2         1 RM0      -0.146000
     17 C15          2.7390    -6.1940     8.7940 c2         1 RM0      -0.095000
     18 O16          0.6400    -8.9520     9.8910 oh         1 RM0      -0.220000
     19 C17         -1.3290    -7.2550     8.7840 c2         1 RM0      -0.365000
     20 N18         -2.1970    -6.4470     8.2670 n2         1 RM0       0.125000
     21 O19         -3.5700    -6.7950     8.2590 oh         1 RM0      -0.229000
     22 H1           1.7910    -0.8860    -0.5080 h1         1 RM0       0.051500
     23 H2           1.7910     0.8860    -0.5080 h1         1 RM0       0.051500
     24 H3           1.6170     0.9100     1.9380 h1         1 RM0       0.057500
     25 H4           3.0170    -0.0600     1.4490 h1         1 RM0       0.057500
     26 H6          -0.4780    -2.0080     2.6360 h1         1 RM0       0.057500
     27 H7          -0.4390    -0.2350     2.6360 h1         1 RM0       0.057500
     28 H8          -1.6550    -1.0360     0.6620 h1         1 RM0       0.051500
     29 H9          -0.2690    -2.0350     0.1920 h1         1 RM0       0.051500
     30 H10          2.9650    -1.1420     3.5240 h1         1 RM0       0.048500
     31 H11          1.4600    -0.4230     4.1140 h1         1 RM0       0.048500
     32 H12          0.4100    -2.6610     4.1600 hc         1 RM0       0.063500
     33 H13          1.9150    -3.3790     3.5710 hc         1 RM0       0.063500
     34 H14          1.5900    -1.8350     6.1700 hc         1 RM0       0.053000
     35 H15          3.0960    -2.5520     5.5810 hc         1 RM0       0.053000
     36 H16          2.0470    -4.7910     5.6280 hc         1 RM0       0.063000
     37 H17          0.5410    -4.0730     6.2180 hc         1 RM0       0.063000
     38 H18          3.2280    -3.9660     7.6370 hc         1 RM0       0.063000
     39 H19          1.7230    -3.2470     8.2270 hc         1 RM0       0.063000
     40 H20          3.1310    -8.0660     9.7780 ha         1 RM0       0.124000
     41 H21          3.7770    -5.8850     8.7780 ha         1 RM0       0.118000
     42 H22          0.7590    -8.9280    10.8260 ho         1 RM0       0.211000
     43 H23         -0.6730    -7.3330     7.9260 DU         1 RM0       0.314000
     44 H26         -4.0810    -6.0520     7.9820 ho         1 RM0       0.207000
@<TRIPOS>BOND
     1     1     2 1   
     2     1     6 1   
     3     2     3 1   
     4     2    22 1   
     5     2    23 1   
     6     3     4 1   
     7     3    24 1   
     8     3    25 1   
     9     4     5 1   
    10     4     7 1   
    11     5     6 1   
    12     5    26 1   
    13     5    27 1   
    14     6    28 1   
    15     6    29 1   
    16     7     8 1   
    17     7    30 1   
    18     7    31 1   
    19     8     9 1   
    20     8    32 1   
    21     8    33 1   
    22     9    10 1   
    23     9    34 1   
    24     9    35 1   
    25    10    11 1   
    26    10    36 1   
    27    10    37 1   
    28    11    12 1   
    29    11    38 1   
    30    11    39 1   
    31    12    13 1   
    32    12    17 1   
    33    13    14 1   
    34    14    15 1   
    35    14    19 1   
    36    14    43 1   
    37    15    16 1   
    38    15    18 1   
    39    16    17 1   
    40    16    40 1   
    41    17    41 1   
    42    18    42 1   
    43    19    20 1   
    44    19    43 1   
    45    20    21 1   
    46    21    44 1   
@<TRIPOS>SUBSTRUCTURE
     1 RM0         1 TEMP              0 ****  ****    0 ROOT
