@<TRIPOS>MOLECULE
molecule
   24    25     1     0     0
SMALL
bcc


@<TRIPOS>ATOM
      1 C10          0.0000     0.0000     0.0000 c3         1 RM1       0.129100
      2 N10          1.4690     0.0000     0.0000 n7         1 RM1      -0.791200
      3 C9           1.8920     0.0000     1.4060 c3         1 RM1       0.199800
      4 C8           1.9900    -1.4190     1.9250 ca         1 RM1      -0.074300
      5 C7           1.1380    -2.4960     1.7610 ca         1 RM1      -0.100000
      6 C6           1.4400    -3.7160     2.3370 ca         1 RM1      -0.132000
      7 C5           2.6000    -3.8620     3.0760 ca         1 RM1      -0.127000
      8 C4           3.4530    -2.7890     3.2390 ca         1 RM1      -0.116000
      9 C3           3.1510    -1.5650     2.6630 ca         1 RM1      -0.091300
     10 C2           3.9080    -0.2540     2.6940 c3         1 RM1      -0.031100
     11 C1           3.3160     0.5810     1.5390 c3         1 RM1      -0.087400
     12 H101        -0.3610    -0.7340    -0.7100 h1         1 RM1       0.033367
     13 H102        -0.3610     0.9820    -0.2810 h1         1 RM1       0.033367
     14 H103        -0.3610    -0.2480     0.9910 h1         1 RM1       0.033367
     15 H10          1.8030     0.8300    -0.4490 hn         1 RM1       0.350800
     16 H9           1.1980     0.5710     2.0120 h1         1 RM1       0.039700
     17 H7           0.2300    -2.3830     1.1820 ha         1 RM1       0.131000
     18 H6           0.7700    -4.5570     2.2080 ha         1 RM1       0.129000
     19 H5           2.8380    -4.8170     3.5270 ha         1 RM1       0.129000
     20 H4           4.3610    -2.9040     3.8180 ha         1 RM1       0.127000
     21 H2C1         3.7480     0.2490     3.6400 hc         1 RM1       0.052700
     22 H2C2         4.9640    -0.4280     2.5270 hc         1 RM1       0.052700
     23 H1C1         3.8790     0.4260     0.6270 hc         1 RM1       0.055200
     24 H1C2         3.2790     1.6300     1.8050 hc         1 RM1       0.055200
@<TRIPOS>BOND
     1     1     2 1
     2     1    12 1
     3     1    13 1
     4     1    14 1
     5     2     3 1
     6     2    15 1
     7     3     4 1
     8     3    11 1
     9     3    16 1
    10     4     5 ar
    11     4     9 ar
    12     5     6 ar
    13     5    17 1
    14     6     7 ar
    15     6    18 1
    16     7     8 ar
    17     7    19 1
    18     8     9 ar
    19     8    20 1
    20     9    10 1
    21    10    11 1
    22    10    21 1
    23    10    22 1
    24    11    23 1
    25    11    24 1
@<TRIPOS>SUBSTRUCTURE
     1 RM1         1 TEMP              0 ****  ****    0 ROOT
