@<TRIPOS>MOLECULE
RM2
   27    29     1     0     0
SMALL
bcc


@<TRIPOS>ATOM
      1 C13          0.0000     0.0000     0.0000 c2         1 RM2      -0.014000
      2 C12          1.3300     0.0000     0.0000 c3         1 RM2      -0.264000
      3 C11          2.0650     0.0000     1.2710 c2         1 RM2      -0.383000
      4 N10          3.3600     0.0000     1.2710 n2         1 RM2      -0.013000
      5 C9           4.0930     0.0010     2.5390 c3         1 RM2       0.014000
      6 C1           5.0400     1.2170     2.6140 c3         1 RM2      -0.099000
      7 C2           6.2460     0.6510     3.3920 c3         1 RM2      -0.038000
      8 C3           6.2320    -0.8380     3.1180 ca         1 RM2      -0.114000
      9 C8           4.9970    -1.2110     2.6240 ca         1 RM2      -0.073000
     10 C7           4.7560    -2.5350     2.2970 ca         1 RM2      -0.099000
     11 C4           7.2310    -1.7920     3.2760 ca         1 RM2       0.102000
     12 C5           6.9840    -3.1160     2.9470 ca         1 RM2      -0.156000
     13 C6           5.7470    -3.4850     2.4580 ca         1 RM2      -0.079000
     14 O4           8.4480    -1.4270     3.7580 oh         1 RM2      -0.250000
     15 H131        -0.5420    -0.0000     0.9380 ha         1 RM2       0.086500
     16 H132        -0.5420     0.0000    -0.9380 ha         1 RM2       0.086500
     17 H12          1.8720     0.0000    -0.9380 hc         1 RM2       0.101000
     18 H11          1.9210    -0.8740     0.6480 DU         1 RM2       0.325000
     19 H9           3.4050     0.0120     3.3760 h1         1 RM2       0.082000
     20 H1C1         5.3450     1.5110     1.6170 hc         1 RM2       0.070500
     21 H1C2         4.5740     2.0160     3.1780 hc         1 RM2       0.070500
     22 H2C1         7.1620     1.0830     3.0060 hc         1 RM2       0.065000
     23 H2C2         6.1090     0.8260     4.4520 hc         1 RM2       0.065000
     24 H7           3.7860    -2.8270     1.9130 ha         1 RM2       0.099000
     25 H5           7.7610    -3.8600     3.0740 ha         1 RM2       0.112000
     26 H6           5.5530    -4.5200     2.2010 ha         1 RM2       0.103000
     27 H4           8.5790    -1.8160     4.6070 ho         1 RM2       0.200000
@<TRIPOS>BOND
     1     1     2 1   
     2     1    15 1   
     3     1    16 1   
     4     2     3 1   
     5     2    17 1   
     6     2    18 1   
     7     3     4 1   
     8     3    18 1   
     9     4     5 1   
    10     5     6 1   
    11     5     9 1   
    12     5    19 1   
    13     6     7 1   
    14     6    20 1   
    15     6    21 1   
    16     7     8 1   
    17     7    22 1   
    18     7    23 1   
    19     8     9 1   
    20     8    11 1   
    21     9    10 1   
    22    10    13 1   
    23    10    24 1   
    24    11    12 1   
    25    11    14 1   
    26    12    13 1   
    27    12    25 1   
    28    13    26 1   
    29    14    27 1   
@<TRIPOS>SUBSTRUCTURE
     1 RM2         1 TEMP              0 ****  ****    0 ROOT
