@<TRIPOS>MOLECULE
RM4
   23    23     1     0     0
SMALL
bcc


@<TRIPOS>ATOM
      1 C1          0.0620    0.2000    0.1020 c3        1 RM4      0.319900
      2 C2          1.6020    0.2670    0.1790 c3        1 RM4      0.063100
      3 C3          2.0890    0.0260    1.6120 c3        1 RM4      0.111100
      4 C4          1.4190   -1.2250    2.2050 c3        1 RM4      0.082100
      5 C5         -0.1090   -1.0960    2.1120 c3        1 RM4      0.162100
      6 C6         -0.8040   -2.3500    2.6030 c3        1 RM4     -0.090100
      7 O1         -0.3390    0.0200   -1.2340 oh        1 RM4     -0.607800
      8 O2          2.2000   -0.7290   -0.6360 oh        1 RM4     -0.607800
      9 O3          3.4940   -0.1010    1.6770 oh        1 RM4     -0.595800
     10 O4          1.7480   -1.3610    3.5770 oh        1 RM4     -0.595800
     11 O5         -0.4960   -0.9330    0.7440 os        1 RM4     -0.451600
     12 H1         -0.4030    1.1530    0.4780 h2        1 RM4      0.073700
     13 H2          1.9380    1.2820   -0.1730 h1        1 RM4      0.064700
     14 H3          1.8550    0.9260    2.2490 h1        1 RM4      0.088700
     15 H4          1.7640   -2.1360    1.6400 h1        1 RM4      0.063700
     16 H5         -0.4460   -0.1970    2.7000 h1        1 RM4      0.052700
     17 H6         -0.5480   -3.2190    1.9520 hc        1 RM4      0.054033
     18 H6A        -1.9110   -2.2070    2.5880 hc        1 RM4      0.054033
     19 H6B        -0.4650   -2.5580    3.6470 hc        1 RM4      0.054033
     20 HO1        -0.5310   -0.9200   -1.3710 ho        1 RM4      0.436000
     21 HO2         1.8540   -0.5980   -1.5300 ho        1 RM4      0.425000
     22 HO3         3.7610   -0.7430    1.0040 ho        1 RM4      0.424000
     23 HO4         2.7030   -1.2220    3.6440 ho        1 RM4      0.421000
@<TRIPOS>BOND
     1    1    2 1   
     2    1    7 1   
     3    1   11 1   
     4    1   12 1   
     5    2    3 1   
     6    2    8 1   
     7    2   13 1   
     8    3    4 1   
     9    3    9 1   
    10    3   14 1   
    11    4    5 1   
    12    4   10 1   
    13    4   15 1   
    14    5    6 1   
    15    5   11 1   
    16    5   16 1   
    17    6   17 1   
    18    6   18 1   
    19    6   19 1   
    20    7   20 1   
    21    8   21 1   
    22    9   22 1   
    23   10   23 1   
@<TRIPOS>SUBSTRUCTURE
     1 RM4         1 TEMP              0 ****  ****    0 ROOT
