@<TRIPOS>MOLECULE
molecule
   23    23     1     0     0
SMALL
bcc


@<TRIPOS>ATOM
      1 C1           0.0000     0.0000     0.0000 c3         1 RM4       0.339900
      2 C2           1.5310     0.0000     0.0000 c3         1 RM4       0.114100
      3 C3           2.0340     0.0000     1.4470 c3         1 RM4       0.100100
      4 C4           1.4520    -1.2130     2.1790 c3         1 RM4       0.116100
      5 C5          -0.0760    -1.1650     2.0950 c3         1 RM4       0.130100
      6 C6          -0.6630    -2.4060     2.7710 c3         1 RM4      -0.076100
      7 O1          -0.4770    -0.0570    -1.3460 oh         1 RM4      -0.572800
      8 O2           2.0080    -1.1680    -0.6710 oh         1 RM4      -0.563800
      9 O3           3.4610    -0.0740     1.4570 oh         1 RM4      -0.576800
     10 O4           1.8560    -1.1840     3.5490 oh         1 RM4      -0.587800
     11 O5          -0.4750    -1.1370     0.7230 os         1 RM4      -0.422600
     12 H1          -0.3590     0.9040     0.4770 h2         1 RM4       0.016700
     13 H2           1.8920     0.8870    -0.5070 h1         1 RM4       0.043700
     14 H3           1.7100     0.9080     1.9400 h1         1 RM4       0.028700
     15 H4           1.8100    -2.1220     1.7110 h1         1 RM4       0.122700
     16 H5          -0.4350    -0.2730     2.5920 h1         1 RM4       0.023700
     17 H6          -0.2230    -3.2960     2.3380 hc         1 RM4       0.051367
     18 H6A         -1.7360    -2.4250     2.6220 hc         1 RM4       0.051367
     19 H6B         -0.4470    -2.3750     3.8320 hc         1 RM4       0.051367
     20 HO1         -1.3080     0.3850    -1.4040 ho         1 RM4       0.410000
     21 HO2          2.4960    -0.9140    -1.4360 ho         1 RM4       0.409000
     22 HO3          3.8180     0.7690     1.6850 ho         1 RM4       0.399000
     23 HO4          1.9290    -0.2880     3.8360 ho         1 RM4       0.393000
@<TRIPOS>BOND
     1     2     1 1
     2     1    11 1
     3     1     7 1
     4     1    12 1
     5     3     2 1
     6     2     8 1
     7     2    13 1
     8     9     3 1
     9     3     4 1
    10     3    14 1
    11    10     4 1
    12     4     5 1
    13     4    15 1
    14     5     6 1
    15     5    11 1
    16     5    16 1
    17     6    17 1
    18     6    18 1
    19     6    19 1
    20     7    20 1
    21     8    21 1
    22     9    22 1
    23    10    23 1
@<TRIPOS>SUBSTRUCTURE
     1 RM4         1 TEMP              0 ****  ****    0 ROOT
