@<TRIPOS>MOLECULE
molecule
   45    48     1     0     0
SMALL
bcc


@<TRIPOS>ATOM
      1 C1           0.0000     0.0000     0.0000 c3         1 RM8      -0.030900
      2 N1           2.2930     0.0000     1.1210 na         1 RM8      -0.180400
      3 C2           1.5070     0.0000     0.0000 cc         1 RM8      -0.030300
      4 N2           1.6440     1.3830    -2.9940 n3         1 RM8      -0.730600
      5 C3           2.2770    -0.0010    -1.1000 cd         1 RM8      -0.158400
      6 N3           2.0470     3.5680    -4.7740 nh         1 RM8      -0.703300
      7 C4           3.6700    -0.0010    -0.6460 ca         1 RM8      -0.097800
      8 N4           0.6950     5.3420    -5.5040 nb         1 RM8      -0.741000
      9 C5           4.9040    -0.0010    -1.3000 ca         1 RM8      -0.088000
     10 C6           6.0590    -0.0000    -0.5710 ca         1 RM8      -0.156000
     11 C7           6.0160    -0.0000     0.8160 ca         1 RM8      -0.112000
     12 C8           4.8100    -0.0000     1.4830 ca         1 RM8      -0.142000
     13 C9           3.6210    -0.0000     0.7600 ca         1 RM8      -0.038200
     14 C10          1.7990    -0.0010    -2.5290 c3         1 RM8       0.243000
     15 C11          0.9590     1.4290    -4.2930 c3         1 RM8       0.156800
     16 C12          0.7460     2.8870    -4.7040 c3         1 RM8       0.172800
     17 C13          2.7320     3.5230    -3.4760 c3         1 RM8       0.172800
     18 C14          2.9450     2.0630    -3.0640 c3         1 RM8       0.156800
     19 C15          1.9010     4.8780    -5.2150 ca         1 RM8       0.618200
     20 C16          3.0230     5.6910    -5.3470 ca         1 RM8      -0.268300
     21 C17          2.8620     6.9920    -5.7870 ca         1 RM8      -0.074000
     22 C18          1.5800     7.4400    -6.0800 ca         1 RM8      -0.287300
     23 C19          0.5120     6.5790    -5.9250 ca         1 RM8       0.445200
     24 H1          -0.3610    -0.1770     1.0060 hc         1 RM8       0.051367
     25 H1A         -0.3610     0.9600    -0.3490 hc         1 RM8       0.051367
     26 H1B         -0.3610    -0.7820    -0.6560 hc         1 RM8       0.051367
     27 HN1          1.9520     0.0000     2.0620 hn         1 RM8       0.295700
     28 H5           4.9450    -0.0010    -2.3830 ha         1 RM8       0.129000
     29 H6           7.0160    -0.0000    -1.0790 ha         1 RM8       0.128000
     30 H7           6.9400     0.0000     1.3810 ha         1 RM8       0.129000
     31 H8           4.7870     0.0000     2.5660 ha         1 RM8       0.125000
     32 H10          0.8450    -0.5120    -2.5900 h1         1 RM8       0.038200
     33 H10A         2.5230    -0.5130    -3.1520 h1         1 RM8       0.038200
     34 H11         -0.0020     0.9340    -4.2110 h1         1 RM8       0.044950
     35 H11A         1.5660     0.9290    -5.0390 h1         1 RM8       0.044950
     36 H12          0.2690     2.9220    -5.6760 h1         1 RM8       0.055200
     37 H12A         0.1200     3.3810    -3.9700 h1         1 RM8       0.055200
     38 H13          3.6930     4.0170    -3.5580 h1         1 RM8       0.055200
     39 H13A         2.1260     4.0220    -2.7300 h1         1 RM8       0.055200
     40 H14          3.5710     1.5690    -3.7980 h1         1 RM8       0.044950
     41 H14A         3.4220     2.0290    -2.0920 h1         1 RM8       0.044950
     42 H16          4.0080     5.3090    -5.1100 ha         1 RM8       0.143000
     43 H17          3.7170     7.6480    -5.8990 ha         1 RM8       0.136000
     44 H18          1.4200     8.4540    -6.4260 ha         1 RM8       0.136000
     45 H19         -0.4890     6.9240    -6.1520 h4         1 RM8       0.020100
@<TRIPOS>BOND
     1     1     3 1
     2     2     3 1
     3     2    13 1
     4     3     5 2
     5     4    14 1
     6     4    15 1
     7     4    18 1
     8     5     7 1
     9     5    14 1
    10     6    16 1
    11     6    17 1
    12     6    19 1
    13     7     9 ar
    14     7    13 ar
    15     8    19 ar
    16     8    23 ar
    17     9    10 ar
    18    10    11 ar
    19    11    12 ar
    20    12    13 ar
    21    15    16 1
    22    17    18 1
    23    19    20 ar
    24    20    21 ar
    25    21    22 ar
    26    22    23 ar
    27     1    24 1
    28     1    25 1
    29     1    26 1
    30     2    27 1
    31     9    28 1
    32    10    29 1
    33    11    30 1
    34    12    31 1
    35    14    32 1
    36    14    33 1
    37    15    34 1
    38    15    35 1
    39    16    36 1
    40    16    37 1
    41    17    38 1
    42    17    39 1
    43    18    40 1
    44    18    41 1
    45    20    42 1
    46    21    43 1
    47    22    44 1
    48    23    45 1
@<TRIPOS>SUBSTRUCTURE
     1 RM8         1 TEMP              0 ****  ****    0 ROOT
