@<TRIPOS>MOLECULE
molecule
   29    30     1     0     0
SMALL
bcc


@<TRIPOS>ATOM
      1 C13         -0.8890     0.4460    -2.4530 c1         1 RMA      -0.151500
      2 C12         -0.4910     0.2590    -1.3640 c1         1 RMA      -0.135100
      3 C11          0.0000     0.0000     0.0000 c3         1 RMA       0.208900
      4 N10          1.4690     0.0000     0.0000 n3         1 RMA      -0.656600
      5 C10          1.8910    -1.2880    -0.5680 c3         1 RMA       0.120100
      6 C9           1.8910     0.0000     1.4060 c3         1 RMA       0.189800
      7 C1           1.2350    -1.1750     2.1620 c3         1 RMA      -0.127400
      8 C2           1.0000    -0.5760     3.5660 c3         1 RMA      -0.033100
      9 C3           0.8810     0.9170     3.3450 ca         1 RMA      -0.097300
     10 C8           1.3950     1.2480     2.1040 ca         1 RMA      -0.096300
     11 C7           1.3890     2.5680     1.6880 ca         1 RMA      -0.095000
     12 C4           0.3670     1.9060     4.1650 ca         1 RMA      -0.118000
     13 C5           0.3640     3.2230     3.7480 ca         1 RMA      -0.124000
     14 C6           0.8760     3.5540     2.5070 ca         1 RMA      -0.134000
     15 H13         -1.4100     0.9450    -3.2610 ha         1 RMA       0.163500
     16 H111        -0.3610     0.7740     0.6670 h1         1 RMA       0.062700
     17 H112        -0.3610    -0.9640     0.3370 h1         1 RMA       0.062700
     18 H101         1.9120    -1.2160    -1.6490 h1         1 RMA       0.038700
     19 H102         2.8800    -1.5370    -0.2030 h1         1 RMA       0.038700
     20 H103         1.1910    -2.0600    -0.2710 h1         1 RMA       0.038700
     21 H9           2.9700    -0.0650     1.4800 h1         1 RMA       0.081700
     22 H11          0.2870    -1.4290     1.7040 hc         1 RMA       0.058700
     23 H12          1.9240    -2.0090     2.2240 hc         1 RMA       0.058700
     24 H21          1.8560    -0.7830     4.1960 hc         1 RMA       0.055700
     25 H22          0.0720    -0.9580     3.9730 hc         1 RMA       0.055700
     26 H7           1.7890     2.8290     0.7160 ha         1 RMA       0.143000
     27 H4          -0.0340     1.6470     5.1370 ha         1 RMA       0.128000
     28 H5          -0.0390     3.9960     4.3920 ha         1 RMA       0.130000
     29 H6           0.8740     4.5860     2.1770 ha         1 RMA       0.132000
@<TRIPOS>BOND
     1     1     2 3
     2     1    15 1
     3     2     3 1
     4     3     4 1
     5     3    16 1
     6     3    17 1
     7     4     5 1
     8     4     6 1
     9     5    18 1
    10     5    19 1
    11     5    20 1
    12     6     7 1
    13     6    10 1
    14     6    21 1
    15     7     8 1
    16     7    22 1
    17     7    23 1
    18     8     9 1
    19     8    24 1
    20     8    25 1
    21     9    10 ar
    22     9    12 ar
    23    10    11 ar
    24    11    14 ar
    25    11    26 1
    26    12    13 ar
    27    12    27 1
    28    13    14 ar
    29    13    28 1
    30    14    29 1
@<TRIPOS>SUBSTRUCTURE
     1 RMA         1 TEMP              0 ****  ****    0 ROOT
