@<TRIPOS>MOLECULE
molecule
   38    40     1     0     0
SMALL
bcc


@<TRIPOS>ATOM
      1 N3           0.0000     0.0000     0.0000 nc         1 RMB      -0.651100
      2 N1           1.7690     0.0000     1.2770 na         1 RMB      -0.135300
      3 C2           1.3020     0.0000     0.0000 cd         1 RMB       0.512700
      4 C7A          0.6730    -0.0010     2.1160 ca         1 RMB      -0.109200
      5 C3A         -0.4560    -0.0010     1.2790 ca         1 RMB       0.100400
      6 C4          -1.7330    -0.0070     1.8470 ca         1 RMB      -0.082000
      7 C5          -1.8740    -0.0010     3.2050 ca         1 RMB      -0.120300
      8 C6          -0.7600    -0.0020     4.0320 ca         1 RMB      -0.140000
      9 C7           0.5100    -0.0020     3.4940 ca         1 RMB      -0.117000
     10 C8          -3.2530    -0.0020     3.8120 c3         1 RMB      -0.035800
     11 P            7.7000    -1.1830    -1.2930 p5         1 RMB       1.148900
     12 O1P          8.2520    -1.8060    -0.0700 o          1 RMB      -0.907500
     13 O2P          7.6960    -2.2610    -2.4890 o          1 RMB      -0.907500
     14 O3P          8.6080     0.0770    -1.7100 o          1 RMB      -0.907500
     15 O5'          6.1940    -0.6900    -1.0100 os         1 RMB      -0.525200
     16 C5'          6.2620     0.2590     0.0540 c3         1 RMB       0.164400
     17 C4'          4.8560     0.7700     0.3750 c3         1 RMB       0.131100
     18 O4'          4.0180    -0.3130     0.8030 os         1 RMB      -0.361600
     19 C3'          4.8970     1.7500     1.5740 c3         1 RMB       0.090100
     20 O3'          5.1690     3.0830     1.1420 oh         1 RMB      -0.576800
     21 C2'          3.4470     1.6180     2.1140 c3         1 RMB       0.062100
     22 O2'          2.6260     2.4780     1.3230 oh         1 RMB      -0.572800
     23 C1'          3.1270     0.1350     1.8310 c3         1 RMB       0.246800
     24 H21          1.9220    -0.0010    -0.8880 h5         1 RMB       0.103800
     25 H41         -2.6090    -0.0060     1.2100 ha         1 RMB       0.128000
     26 H61         -0.8890     0.0030     5.1070 ha         1 RMB       0.115000
     27 H71          1.3760    -0.0020     4.1440 ha         1 RMB       0.118000
     28 H81         -3.8710     0.7290     3.3050 hc         1 RMB       0.029700
     29 H82         -3.6940    -0.9860     3.7030 hc         1 RMB       0.029700
     30 H83         -3.1850     0.2480     4.8640 hc         1 RMB       0.029700
     31 H5'1         6.6350    -0.2270     0.9480 h1         1 RMB       0.053200
     32 H5'2         6.9300     1.0660    -0.2230 h1         1 RMB       0.053200
     33 H4'          4.4220     1.2570    -0.4890 h1         1 RMB       0.073700
     34 H3'          5.6150     1.4200     2.3150 h1         1 RMB       0.056700
     35 HO3'         5.7720     3.4910     1.7410 ho         1 RMB       0.390000
     36 H2'          3.3410     1.8380     3.1700 h1         1 RMB       0.030700
     37 HO2'         2.4650     3.2800     1.7930 ho         1 RMB       0.396000
     38 H1'          3.2820    -0.4490     2.7290 h2         1 RMB       0.085700
@<TRIPOS>BOND
     1     1     3 2
     2     1     5 1
     3     2     3 1
     4     2     4 1
     5     2    23 1
     6     3    24 1
     7     4     5 ar
     8     4     9 ar
     9     5     6 ar
    10     6     7 ar
    11     6    25 1
    12     7     8 ar
    13     7    10 1
    14     8     9 ar
    15     8    26 1
    16     9    27 1
    17    10    28 1
    18    10    29 1
    19    10    30 1
    20    11    12 1
    21    11    13 1
    22    11    14 1
    23    11    15 1
    24    15    16 1
    25    16    17 1
    26    16    31 1
    27    16    32 1
    28    17    18 1
    29    17    19 1
    30    17    33 1
    31    18    23 1
    32    19    20 1
    33    19    21 1
    34    19    34 1
    35    20    35 1
    36    21    22 1
    37    21    23 1
    38    21    36 1
    39    22    37 1
    40    23    38 1
@<TRIPOS>SUBSTRUCTURE
     1 RMB         1 TEMP              0 ****  ****    0 ROOT
