@<TRIPOS>MOLECULE
RMB
   38    40     1     0     0
SMALL
bcc


@<TRIPOS>ATOM
      1 N3          0.1310    0.9110    0.2110 nc        1 RMB     -0.624100
      2 N1          1.8580    0.5950    1.7050 na        1 RMB     -0.154300
      3 C2          1.4660    0.9180    0.3920 cd        1 RMB      0.458700
      4 C7A         0.6790    0.3380    2.4110 ca        1 RMB     -0.066200
      5 C3A        -0.4090    0.5500    1.4610 ca        1 RMB      0.068400
      6 C4         -1.7330    0.3840    1.8820 ca        1 RMB     -0.084000
      7 C5         -1.9780    0.0150    3.2020 ca        1 RMB     -0.130300
      8 C6         -0.9160   -0.1900    4.1060 ca        1 RMB     -0.141000
      9 C7          0.4100   -0.0340    3.7330 ca        1 RMB     -0.120000
     10 C8         -3.3680   -0.1730    3.6800 c3        1 RMB     -0.032800
     11 P           7.8280    0.2180   -0.8930 p5        1 RMB      1.331900
     12 O1P         8.3640    0.4170    0.4980 o         1 RMB     -0.927500
     13 O2P         8.7340   -0.3560   -1.9340 o         1 RMB     -0.927500
     14 O3P         6.8860    1.3330   -1.3120 o         1 RMB     -0.927500
     15 O5'         6.6440   -1.0370   -0.6410 os        1 RMB     -0.562200
     16 C5'         6.0210   -1.0500    0.5750 c3        1 RMB      0.224400
     17 C4'         4.6730   -0.2850    0.5140 c3        1 RMB      0.054100
     18 O4'         3.8600   -0.6710    1.6520 os        1 RMB     -0.428600
     19 C3'         4.8870    1.2400    0.5900 c3        1 RMB      0.088100
     20 O3'         4.3080    1.8830   -0.5270 oh        1 RMB     -0.698800
     21 C2'         4.1490    1.6880    1.8650 c3        1 RMB      0.111100
     22 O2'         3.4720    2.9150    1.7790 oh        1 RMB     -0.609800
     23 C1'         3.2190    0.4700    2.2040 c3        1 RMB      0.211800
     24 H21         2.2330    1.1530   -0.3720 h5        1 RMB      0.117800
     25 H41        -2.5600    0.5420    1.1760 ha        1 RMB      0.127000
     26 H61        -1.1530   -0.4840    5.1390 ha        1 RMB      0.109000
     27 H71         1.2250   -0.2010    4.4500 ha        1 RMB      0.131000
     28 H81        -3.5170   -1.2200    4.0430 hc        1 RMB      0.025367
     29 H82        -3.5850    0.5220    4.5290 hc        1 RMB      0.025367
     30 H83        -4.1090    0.0250    2.8670 hc        1 RMB      0.025367
     31 H5'1        5.7770   -2.1150    0.8610 h1        1 RMB      0.009700
     32 H5'2        6.6700   -0.5890    1.3730 h1        1 RMB      0.009700
     33 H4'         4.1070   -0.5620   -0.4120 h1        1 RMB      0.056700
     34 H3'         6.0060    1.4590    0.6100 h1        1 RMB      0.171700
     35 HO3'        5.0300    1.9180   -1.2000 ho        1 RMB      0.509000
     36 H2'         4.8730    1.7980    2.7190 h1        1 RMB      0.077700
     37 HO2'        3.2810    3.0810    0.8440 ho        1 RMB      0.427000
     38 H1'         3.1480    0.2860    3.3140 h2        1 RMB      0.065700
@<TRIPOS>BOND
     1    1    3 2   
     2    1    5 1   
     3    2    3 1   
     4    2    4 1   
     5    2   23 1   
     6    3   24 1   
     7    4    5 ar  
     8    4    9 ar  
     9    5    6 ar  
    10    6    7 ar  
    11    6   25 1   
    12    7    8 ar  
    13    7   10 1   
    14    8    9 ar  
    15    8   26 1   
    16    9   27 1   
    17   10   28 1   
    18   10   29 1   
    19   10   30 1   
    20   11   12 1   
    21   11   13 1   
    22   11   14 1   
    23   11   15 1   
    24   15   16 1   
    25   16   17 1   
    26   16   31 1   
    27   16   32 1   
    28   17   18 1   
    29   17   19 1   
    30   17   33 1   
    31   18   23 1   
    32   19   20 1   
    33   19   21 1   
    34   19   34 1   
    35   20   35 1   
    36   21   22 1   
    37   21   23 1   
    38   21   36 1   
    39   22   37 1   
    40   23   38 1   
@<TRIPOS>SUBSTRUCTURE
     1 RMB         1 TEMP              0 ****  ****    0 ROOT
