@<TRIPOS>MOLECULE
molecule
   55    57     1     0     0
SMALL
bcc


@<TRIPOS>ATOM
      1 OAP          0.0000     0.0000     0.0000 oh         1 RMC      -0.613800
      2 CAQ          1.4300     0.0000     0.0000 c3         1 RMC       0.117400
      3 CAR          1.9400     0.0000     1.4430 c3         1 RMC       0.258500
      4 CAK          1.3290     1.1820     2.2000 c3         1 RMC      -0.094400
      5 CAI          1.9340     1.2560     3.6030 c3         1 RMC      -0.094100
      6 NAS          1.5520    -1.2520     2.0980 nu         1 RMC      -0.885900
      7 CAT          2.3430    -2.3800     1.9580 ca         1 RMC       0.980900
      8 NAU          1.9750    -3.4970     2.5640 nb         1 RMC      -0.837000
      9 CAV          2.7060    -4.6020     2.4480 ca         1 RMC       0.499800
     10 NAW          2.6050    -5.8830     2.9290 na         1 RMC      -0.254000
     11 CAZ          1.5360    -6.4070     3.7830 c3         1 RMC       0.052000
     12 CAY          0.8340    -7.5650     3.0700 c3         1 RMC      -0.108100
     13 CBA          2.1350    -6.9060     5.1000 c3         1 RMC      -0.108100
     14 CAX          3.6820    -6.5800     2.4650 cc         1 RMC       0.407700
     15 CAN          3.8830    -4.5660     1.6830 ca         1 RMC      -0.210200
     16 NAO          4.4310    -5.8060     1.7350 nd         1 RMC      -0.567100
     17 NAL          3.4470    -2.3030     1.2270 nb         1 RMC      -0.861000
     18 CAM          4.2390    -3.3560     1.0630 ca         1 RMC       0.720200
     19 NAJ          5.3880    -3.2650     0.2990 nh         1 RMC      -0.628300
     20 CAD          5.4580    -1.8830    -0.1960 c3         1 RMC       0.187100
     21 CAE          6.9860    -1.8900    -2.1770 ca         1 RMC      -0.115500
     22 CAG          8.2200    -1.6710    -2.7590 ca         1 RMC      -0.129500
     23 CAH          9.2730    -1.2060    -1.9940 ca         1 RMC      -0.127000
     24 CAF          9.0910    -0.9590    -0.6460 ca         1 RMC      -0.129500
     25 CAC          7.8550    -1.1730    -0.0640 ca         1 RMC      -0.115500
     26 CAB          6.8040    -1.6440    -0.8290 ca         1 RMC      -0.085300
     27 CBB          5.1830    -4.1220    -0.8770 c3         1 RMC       0.131100
     28 HAP         -0.3140     0.0920    -0.8840 ho         1 RMC       0.402000
     29 HAQ1         1.7910    -0.8850    -0.5110 h1         1 RMC       0.031200
     30 HAQ2         1.7910     0.8840    -0.5110 h1         1 RMC       0.031200
     31 HAR          3.0190     0.0890     1.4450 h1         1 RMC       0.083700
     32 HAK1         1.5420     2.1000     1.6660 hc         1 RMC       0.056200
     33 HAK2         0.2570     1.0470     2.2750 hc         1 RMC       0.056200
     34 HAI1         1.5500     2.1290     4.1160 hc         1 RMC       0.036700
     35 HAI2         3.0120     1.3250     3.5290 hc         1 RMC       0.036700
     36 HAI3         1.6670     0.3650     4.1590 hc         1 RMC       0.036700
     37 HAS          0.6910    -1.3050     2.6060 hn         1 RMC       0.463800
     38 HAZ          0.8190    -5.6210     3.9880 h1         1 RMC       0.091700
     39 HAY1        -0.0960    -7.7910     3.5770 hc         1 RMC       0.047367
     40 HAY2         0.6270    -7.2850     2.0440 hc         1 RMC       0.047367
     41 HAY3         1.4750    -8.4390     3.0830 hc         1 RMC       0.047367
     42 HBA1         2.8040    -6.1540     5.5000 hc         1 RMC       0.047367
     43 HBA2         2.6860    -7.8210     4.9220 hc         1 RMC       0.047367
     44 HBA3         1.3390    -7.0950     5.8100 hc         1 RMC       0.047367
     45 HAX          3.8840    -7.6240     2.6740 h5         1 RMC       0.076800
     46 HAD1         4.6800    -1.7230    -0.9310 h1         1 RMC       0.061700
     47 HAD2         5.3210    -1.1970     0.6310 h1         1 RMC       0.061700
     48 HAG          8.3630    -1.8640    -3.8160 ha         1 RMC       0.128500
     49 HAH         10.2410    -1.0360    -2.4500 ha         1 RMC       0.128000
     50 HAF          9.9160    -0.5920    -0.0460 ha         1 RMC       0.128500
     51 HAC          7.7130    -0.9800     0.9920 ha         1 RMC       0.131000
     52 HBB1         4.8240    -5.0930    -0.5570 h1         1 RMC       0.052033
     53 HBB2         4.4530    -3.6660    -1.5340 h1         1 RMC       0.052033
     54 HBB3         6.1210    -4.2410    -1.4050 h1         1 RMC       0.052033
     55 HAE          6.1620    -2.2540    -2.7780 ha         1 RMC       0.131000
@<TRIPOS>BOND
     1     1     2 1
     2     1    28 1
     3     2     3 1
     4     2    29 1
     5     2    30 1
     6     3     4 1
     7     3     6 1
     8     3    31 1
     9     4     5 1
    10     4    32 1
    11     4    33 1
    12     5    34 1
    13     5    35 1
    14     5    36 1
    15     6     7 1
    16     6    37 1
    17     7     8 ar
    18     7    17 ar
    19     8     9 ar
    20     9    10 1
    21     9    15 ar
    22    10    11 1
    23    10    14 1
    24    11    12 1
    25    11    13 1
    26    11    38 1
    27    12    39 1
    28    12    40 1
    29    12    41 1
    30    13    42 1
    31    13    43 1
    32    13    44 1
    33    14    16 2
    34    14    45 1
    35    15    16 1
    36    15    18 ar
    37    17    18 ar
    38    18    19 1
    39    19    20 1
    40    19    27 1
    41    20    26 1
    42    20    46 1
    43    20    47 1
    44    21    22 ar
    45    21    26 ar
    46    21    55 1
    47    22    23 ar
    48    22    48 1
    49    23    24 ar
    50    23    49 1
    51    24    25 ar
    52    24    50 1
    53    25    26 ar
    54    25    51 1
    55    27    52 1
    56    27    53 1
    57    27    54 1
@<TRIPOS>SUBSTRUCTURE
     1 RMC         1 TEMP              0 ****  ****    0 ROOT
