@<TRIPOS>MOLECULE
RME
   38    39     1     0     0
SMALL
bcc


@<TRIPOS>ATOM
      1 C1           0.0000     0.0000     0.0000 c3         1 RME      -0.008100
      2 N1           2.0190     0.0000     1.3810 ns         1 RME      -0.214900
      3 O1           4.1340    -0.0020     0.7020 o          1 RME      -0.610100
      4 C2           1.5300     0.0000     0.0000 c3         1 RME       0.054000
      5 N2           5.6460    -0.1170     4.5390 nb         1 RME      -0.615000
      6 C3           3.3440    -0.0010     1.6260 c          1 RME       0.593700
      7 N3           6.1100    -0.2330     2.2460 nh         1 RME      -0.488300
      8 C4           3.8360    -0.0010     3.0160 ca         1 RME      -0.247900
      9 N4           8.6780    -0.6450     1.0860 n3         1 RME      -0.550600
     10 C5           2.9430     0.1140     4.0880 ca         1 RME      -0.053000
     11 C6           3.4560     0.1090     5.3730 ca         1 RME      -0.236300
     12 C7           4.8210    -0.0090     5.5620 ca         1 RME       0.435200
     13 C8           5.2090    -0.1170     3.2890 ca         1 RME       0.547200
     14 C9           7.1450     0.8070     2.3250 c3         1 RME       0.154300
     15 C10          8.0730     0.6950     1.1130 c3         1 RME       0.153800
     16 C11          7.6440    -1.6850     1.0080 c3         1 RME       0.153800
     17 C12          6.7160    -1.5720     2.2190 c3         1 RME       0.154300
     18 C13          9.6350    -0.7680    -0.0210 c3         1 RME       0.189100
     19 H1          -0.3610    -0.8870     0.5070 hc         1 RME       0.007367
     20 H1A         -0.3610     0.0040    -1.0210 hc         1 RME       0.007367
     21 H1B         -0.3610     0.8820     0.5140 hc         1 RME       0.007367
     22 HN1          1.3690    -0.0210     2.1420 hn         1 RME       0.175500
     23 H2           1.8910     0.8840    -0.5110 h1         1 RME       0.024700
     24 H2A          1.8910    -0.8840    -0.5110 h1         1 RME       0.024700
     25 H5           1.8780     0.2060     3.9160 ha         1 RME       0.107000
     26 H6           2.7930     0.1960     6.2260 ha         1 RME       0.115000
     27 H7           5.2210    -0.0130     6.5690 h4         1 RME      -0.020900
     28 H9           7.7200     0.6740     3.2330 h1         1 RME       0.019200
     29 H9A          6.6740     1.7830     2.3290 h1         1 RME       0.019200
     30 H10          7.5010     0.8500     0.2060 h1         1 RME       0.016450
     31 H10A         8.8540     1.4420     1.1870 h1         1 RME       0.016450
     32 H11          7.0680    -1.5530     0.1000 h1         1 RME       0.016450
     33 H11A         8.1140    -2.6610     1.0050 h1         1 RME       0.016450
     34 H12          7.2870    -1.7270     3.1260 h1         1 RME       0.019200
     35 H12A         5.9350    -2.3190     2.1450 h1         1 RME       0.019200
     36 H13         10.0900    -1.7500     0.0020 h1         1 RME      -0.001300
     37 H13A         9.1160    -0.6320    -0.9630 h1         1 RME      -0.001300
     38 H13B        10.4030    -0.0110     0.0800 h1         1 RME      -0.001300
@<TRIPOS>BOND
     1     1     4 1   
     2     1    19 1   
     3     1    20 1   
     4     1    21 1   
     5     2     4 1   
     6     2     6 1   
     7     2    22 1   
     8     3     6 2   
     9     4    23 1   
    10     4    24 1   
    11     5    12 ar  
    12     5    13 ar  
    13     6     8 1   
    14     7    13 1   
    15     7    14 1   
    16     7    17 1   
    17     8    10 ar  
    18     8    13 ar  
    19     9    15 1   
    20     9    16 1   
    21     9    18 1   
    22    10    11 ar  
    23    10    25 1   
    24    11    12 ar  
    25    11    26 1   
    26    12    27 1   
    27    14    15 1   
    28    14    28 1   
    29    14    29 1   
    30    15    30 1   
    31    15    31 1   
    32    16    17 1   
    33    16    32 1   
    34    16    33 1   
    35    17    34 1   
    36    17    35 1   
    37    18    36 1   
    38    18    37 1   
    39    18    38 1   
@<TRIPOS>SUBSTRUCTURE
     1 RME         1 TEMP              0 ****  ****    0 ROOT
