@<TRIPOS>MOLECULE
RMM
   29    30     1     0     0
SMALL
bcc


@<TRIPOS>ATOM
      1 N01         -1.2690    -0.0080     2.2330 n1         1 RMM      -0.294800
      2 C02         -0.7160     0.0010     1.2410 cg         1 RMM       0.134500
      3 C03          0.0000     0.0000     0.0000 ce         1 RMM      -0.199900
      4 C04          1.4730     0.0000     0.0000 c          1 RMM       0.365300
      5 N05          2.1470     0.0000     1.1680 nz         1 RMM       0.208600
      6 O06          2.0810    -0.0000    -1.0530 o          1 RMM      -0.451100
      7 C07         -0.6830    -0.0050    -1.1820 cf         1 RMM       0.252800
      8 C08         -2.1420     0.1560    -1.1880 ca         1 RMM      -0.177800
      9 C09         -2.7600     1.0010    -0.2580 ca         1 RMM      -0.077000
     10 C10         -4.1300     1.1560    -0.2680 ca         1 RMM      -0.083000
     11 C11         -4.9010     0.4780    -1.1940 ca         1 RMM      -0.047000
     12 C12         -4.3000    -0.3680    -2.1270 ca         1 RMM       0.047000
     13 C13         -5.1340    -1.0920    -3.1190 cc         1 RMM      -0.309300
     14 C14         -6.4920    -1.0270    -3.2320 cd         1 RMM      -0.234300
     15 N15         -6.8540    -1.8290    -4.2530 na         1 RMM       0.483400
     16 N16         -5.6970    -2.4090    -4.7870 nd         1 RMM      -0.639800
     17 C17         -4.6660    -1.9700    -4.1170 cc         1 RMM       0.414200
     18 C18         -2.9200    -0.5300    -2.1260 ca         1 RMM      -0.045000
     19 H051         1.9230    -0.8290     1.6820 hn         1 RMM       0.247800
     20 H052         3.1300     0.0240     0.9850 hn         1 RMM       0.247800
     21 H072        -0.1410    -0.0050    -2.1210 ha         1 RMM       0.130000
     22 H091        -2.1660     1.5000     0.4990 ha         1 RMM       0.111000
     23 H101        -4.6050     1.8280     0.4360 ha         1 RMM       0.121000
     24 H111        -5.9770     0.6030    -1.1980 ha         1 RMM       0.118000
     25 H141        -7.1620    -0.5030    -2.5610 h4         1 RMM       0.151000
     26 H151        -7.7890    -1.9850    -4.5740 hn         1 RMM       0.156700
     27 H171        -3.6330    -2.2530    -4.2830 h4         1 RMM       0.004100
     28 H181        -2.4570    -1.2480    -2.7930 ha         1 RMM       0.118000
     29 H053         1.8790     0.7990     1.7070 hn         1 RMM       0.247800
@<TRIPOS>BOND
     1     1     2 3   
     2     2     3 1   
     3     3     4 1   
     4     3     7 2   
     5     4     5 1   
     6     4     6 2   
     7     5    19 1   
     8     5    20 1   
     9     5    29 1   
    10     7     8 1   
    11     7    21 1   
    12     8     9 ar  
    13     8    18 ar  
    14     9    10 ar  
    15     9    22 1   
    16    10    11 ar  
    17    10    23 1   
    18    11    12 ar  
    19    11    24 1   
    20    12    13 1   
    21    12    18 ar  
    22    13    14 2   
    23    13    17 1   
    24    14    15 1   
    25    14    25 1   
    26    15    16 1   
    27    15    26 1   
    28    16    17 2   
    29    17    27 1   
    30    18    28 1   
@<TRIPOS>SUBSTRUCTURE
     1 RMM         1 TEMP              0 ****  ****    0 ROOT
