@<TRIPOS>MOLECULE
molecule
   29    30     1     0     0
SMALL
bcc


@<TRIPOS>ATOM
      1 N01         -1.2760     0.0180     2.2290 n1         1 RMM      -0.337800
      2 C02         -0.7160     0.0010     1.2410 cg         1 RMM       0.120500
      3 C03          0.0000     0.0000     0.0000 ce         1 RMM      -0.231900
      4 C04          1.4730     0.0000     0.0000 c          1 RMM       0.571300
      5 N05          2.1470     0.0000     1.1680 nz         1 RMM      -0.842400
      6 O06          2.0810    -0.0000    -1.0530 o          1 RMM      -0.405100
      7 C07         -0.6830    -0.0050    -1.1820 cf         1 RMM      -0.089200
      8 C08         -2.1420     0.1560    -1.1880 ca         1 RMM      -0.203800
      9 C09         -2.7600     1.0010    -0.2580 ca         1 RMM      -0.089000
     10 C10         -4.1300     1.1560    -0.2680 ca         1 RMM      -0.151000
     11 C11         -4.9010     0.4780    -1.1940 ca         1 RMM      -0.049000
     12 C12         -4.3000    -0.3680    -2.1270 ca         1 RMM       0.061000
     13 C13         -5.1340    -1.0920    -3.1190 cc         1 RMM      -0.366300
     14 C14         -6.4920    -1.0270    -3.2320 cd         1 RMM      -0.104300
     15 N15         -6.8540    -1.8290    -4.2530 na         1 RMM       0.007400
     16 N16         -5.6970    -2.4090    -4.7870 nd         1 RMM      -0.420800
     17 C17         -4.6660    -1.9700    -4.1170 cc         1 RMM       0.352200
     18 C18         -2.9200    -0.5300    -2.1260 ca         1 RMM      -0.091000
     19 H051         2.1180     0.7960     1.7730 hn         1 RMM       0.523800
     20 H052         3.0790    -0.3170     0.9870 hn         1 RMM       0.523800
     21 H072        -1.6800    -0.4230    -1.2480 ha         1 RMM       0.386000
     22 H091        -2.4390     1.2800     0.7380 ha         1 RMM       0.171000
     23 H101        -4.4900     1.8590     0.4730 ha         1 RMM       0.166000
     24 H111        -5.8620     0.9240    -0.9680 ha         1 RMM       0.173000
     25 H141        -6.8490    -0.2570    -2.5590 h4         1 RMM       0.195000
     26 H151        -7.8450    -1.8870    -4.3810 hn         1 RMM       0.353700
     27 H171        -3.5850    -1.8930    -4.1050 h4         1 RMM       0.063100
     28 H181        -2.5140    -0.9860    -3.0210 ha         1 RMM       0.193000
     29 H053         1.5750     0.2880     1.9370 hn         1 RMM       0.523800
@<TRIPOS>BOND
     1    10    11 ar
     2    10     9 ar
     3    11    12 ar
     4     9     8 ar
     5     1     2 3
     6    17    13 1
     7    17    16 2
     8    12    13 1
     9    12    18 ar
    10     2     3 1
    11     8    18 ar
    12     8     7 1
    13    13    14 2
    14    16    15 1
    15     3     7 2
    16     3     4 1
    17    14    15 1
    18     4     5 1
    19     4     6 2
    20     5    19 1
    21     5    20 1
    22     7    21 1
    23     9    22 1
    24    10    23 1
    25    11    24 1
    26    14    25 1
    27    15    26 1
    28    17    27 1
    29    18    28 1
    30    29     5 1
@<TRIPOS>SUBSTRUCTURE
     1 RMM         1 TEMP              0 ****  ****    0 ROOT
