@<TRIPOS>MOLECULE
molecule
   18    18     1     0     0
SMALL
bcc


@<TRIPOS>ATOM
      1 C1           0.0000     0.0000     0.0000 ca         1 RMN      -0.031300
      2 C2           1.3820     0.0000     0.0000 ca         1 RMN      -0.105500
      3 C3           2.0730     0.0000     1.1970 ca         1 RMN      -0.147500
      4 C4           1.3820    -0.0010     2.3940 ca         1 RMN      -0.158000
      5 C5           0.0010    -0.0010     2.3940 ca         1 RMN      -0.147500
      6 C6          -0.6900     0.0040     1.1970 ca         1 RMN      -0.105500
      7 C7          -0.7530    -0.0010    -1.3040 c3         1 RMN       0.074400
      8 C10         -1.0060     1.4190    -1.7390 c          1 RMN       0.883600
      9 O8          -2.0010    -0.6750    -1.1340 oh         1 RMN      -0.599800
     10 O11         -2.1370     1.8140    -1.8870 o          1 RMN      -0.829800
     11 O12          0.0280     2.2470    -1.9610 o          1 RMN      -0.829800
     12 H2           1.9230    -0.0010    -0.9380 ha         1 RMN       0.140000
     13 H3           3.1570    -0.0000     1.1970 ha         1 RMN       0.107000
     14 H4           1.9240    -0.0030     3.3320 ha         1 RMN       0.102000
     15 H5          -0.5410     0.0000     3.3320 ha         1 RMN       0.107000
     16 H6          -1.7740     0.0040     1.1970 ha         1 RMN       0.140000
     17 H7          -0.1670    -0.5110    -2.0590 h1         1 RMN       0.025700
     18 HO8         -2.1070    -1.3190    -1.8150 ho         1 RMN       0.377000
@<TRIPOS>BOND
     1     1     2 ar
     2     1     6 ar
     3     1     7 1
     4     2     3 ar
     5     2    12 1
     6     3     4 ar
     7     3    13 1
     8     4     5 ar
     9     4    14 1
    10     5     6 ar
    11     5    15 1
    12     6    16 1
    13     7     8 1
    14     7     9 1
    15     7    17 1
    16     8    10 1
    17     8    11 1
    18     9    18 1
@<TRIPOS>SUBSTRUCTURE
     1 RMN         1 TEMP              0 ****  ****    0 ROOT
