@<TRIPOS>MOLECULE
RMN
   18    18     1     0     0
SMALL
bcc


@<TRIPOS>ATOM
      1 C1         -0.0560   -0.0790    0.0380 ca        1 RMN     -0.052300
      2 C2          1.2860    0.3270    0.0840 ca        1 RMN     -0.126000
      3 C3          1.9580    0.3950    1.3020 ca        1 RMN     -0.150000
      4 C4          1.3010    0.0630    2.4880 ca        1 RMN     -0.164000
      5 C5         -0.0350   -0.3310    2.4500 ca        1 RMN     -0.150000
      6 C6         -0.7100   -0.4020    1.2320 ca        1 RMN     -0.126000
      7 C7         -0.7450   -0.1870   -1.2880 c3        1 RMN      0.042400
      8 C10        -0.5570    1.0990   -2.1520 c         1 RMN      0.904600
      9 O8         -2.1190   -0.4930   -1.1260 oh        1 RMN     -0.639800
     10 O11        -1.5850    1.8160   -2.3110 o         1 RMN     -0.827300
     11 O12         0.5760    1.3210   -2.6530 o         1 RMN     -0.827300
     12 H2          1.7800    0.6170   -0.8620 ha        1 RMN      0.157500
     13 H3          3.0080    0.7180    1.3290 ha        1 RMN      0.107500
     14 H4          1.8340    0.1180    3.4470 ha        1 RMN      0.103000
     15 H5         -0.5590   -0.5850    3.3820 ha        1 RMN      0.107500
     16 H6         -1.7660   -0.7100    1.1950 ha        1 RMN      0.157500
     17 H7         -0.3020   -1.0600   -1.8470 h1        1 RMN      0.054700
     18 HO8        -2.6100    0.3280   -1.2990 ho        1 RMN      0.427000
@<TRIPOS>BOND
     1    1    2 ar  
     2    1    6 ar  
     3    1    7 1   
     4    2    3 ar  
     5    2   12 1   
     6    3    4 ar  
     7    3   13 1   
     8    4    5 ar  
     9    4   14 1   
    10    5    6 ar  
    11    5   15 1   
    12    6   16 1   
    13    7    8 1   
    14    7    9 1   
    15    7   17 1   
    16    8   10 1   
    17    8   11 1   
    18    9   18 1   
@<TRIPOS>SUBSTRUCTURE
     1 RMN         1 TEMP              0 ****  ****    0 ROOT
