@<TRIPOS>MOLECULE
molecule
   41    42     1     0     0
SMALL
bcc


@<TRIPOS>ATOM
      1 C1           0.0000     0.0000     0.0000 ca         1 RMR      -0.211500
      2 C2           1.3970     0.0000     0.0000 ca         1 RMR      -0.079600
      3 C3           2.0930     0.0000     1.2110 ca         1 RMR      -0.211500
      4 C4           1.3980    -0.0010     2.4060 ca         1 RMR       0.147100
      5 C5           0.0060    -0.0020     2.4030 ca         1 RMR       0.070100
      6 C6          -0.6900    -0.0010     1.1970 ca         1 RMR       0.147100
      7 C7           2.1360     0.0010    -1.2780 c          1 RMR       0.674700
      8 N8           3.4840     0.0020    -1.2760 ns         1 RMR      -0.586900
      9 C9           4.2180     0.0030    -2.5440 c3         1 RMR       0.114000
     10 C10          5.7220     0.0030    -2.2630 c3         1 RMR      -0.020100
     11 C11          6.4770     0.0040    -3.5670 cc         1 RMR      -0.032400
     12 S12          6.9840    -1.4330    -4.4460 ss         1 RMR      -0.160800
     13 C13          7.7120    -0.4430    -5.7050 cd         1 RMR      -0.066100
     14 C14          7.5430     0.8470    -5.4120 cc         1 RMR      -0.156000
     15 C15          6.8570     1.0940    -4.2350 cc         1 RMR      -0.151000
     16 O16         -2.0500     0.0040     1.1980 os         1 RMR      -0.310900
     17 C17         -2.7000     0.0110    -0.0750 c3         1 RMR       0.125200
     18 O18         -0.6750    -0.0040     3.5790 os         1 RMR      -0.324900
     19 C19         -1.0010     1.2680     4.1420 c3         1 RMR       0.136700
     20 O20          2.0750    -0.0020     3.5860 os         1 RMR      -0.310900
     21 C21          3.5020    -0.0010     3.5140 c3         1 RMR       0.125200
     22 O22          1.5290     0.0010    -2.3310 o          1 RMR      -0.603100
     23 H1          -0.5420     0.0010    -0.9380 ha         1 RMR       0.149000
     24 H2           3.1760     0.0000     1.2140 ha         1 RMR       0.149000
     25 H3           3.9830    -0.0330    -0.4090 hn         1 RMR       0.312500
     26 H4           3.9570    -0.8820    -3.1130 h1         1 RMR       0.061700
     27 H5           3.9560     0.8870    -3.1120 h1         1 RMR       0.061700
     28 H6           5.9820     0.8880    -1.6950 hc         1 RMR       0.055700
     29 H7           5.9830    -0.8810    -1.6950 hc         1 RMR       0.055700
     30 H9           8.2210    -0.8230    -6.5820 h4         1 RMR       0.172000
     31 H11          7.9100     1.6420    -6.0500 ha         1 RMR       0.149000
     32 H13          6.6510     2.0960    -3.8800 ha         1 RMR       0.148000
     33 H15         -2.4250    -0.8810    -0.6250 h1         1 RMR       0.044200
     34 H16         -2.3930     0.8880    -0.6320 h1         1 RMR       0.044200
     35 H17         -3.7730     0.0310     0.0680 h1         1 RMR       0.044200
     36 H18         -0.5340     1.3630     5.1150 h1         1 RMR       0.035033
     37 H19         -2.0760     1.3520     4.2480 h1         1 RMR       0.035033
     38 H20         -0.6400     2.0540     3.4900 h1         1 RMR       0.035033
     39 H21          3.8390    -0.8920     2.9970 h1         1 RMR       0.044200
     40 H22          3.8360     0.8770     2.9760 h1         1 RMR       0.044200
     41 H23          3.9140     0.0110     4.5160 h1         1 RMR       0.044200
@<TRIPOS>BOND
     1    14    13 2
     2    14    15 1
     3    13    12 1
     4    15    11 2
     5    11    12 1
     6    11    10 1
     7    10     9 1
     8    21    20 1
     9     9     8 1
    10     8     7 1
    11    20     4 1
    12     3     4 ar
    13     3     2 ar
    14     4     5 ar
    15     7     2 1
    16     7    22 2
    17     2     1 ar
    18     5    18 1
    19     5     6 ar
    20    18    19 1
    21     1     6 ar
    22     6    16 1
    23    16    17 1
    24     1    23 1
    25     3    24 1
    26     8    25 1
    27     9    26 1
    28     9    27 1
    29    10    28 1
    30    10    29 1
    31    13    30 1
    32    14    31 1
    33    15    32 1
    34    17    33 1
    35    17    34 1
    36    17    35 1
    37    19    36 1
    38    19    37 1
    39    19    38 1
    40    21    39 1
    41    21    40 1
    42    21    41 1
@<TRIPOS>SUBSTRUCTURE
     1 RMR         1 TEMP              0 ****  ****    0 ROOT
