@<TRIPOS>MOLECULE
RMR
   41    42     1     0     0
SMALL
bcc


@<TRIPOS>ATOM
      1 C1           0.0000     0.0000     0.0000 ca         1 RMR      -0.204000
      2 C2           1.3970     0.0000     0.0000 ca         1 RMR      -0.079600
      3 C3           2.0930     0.0000     1.2110 ca         1 RMR      -0.204000
      4 C4           1.3980    -0.0010     2.4060 ca         1 RMR       0.154100
      5 C5           0.0060    -0.0020     2.4030 ca         1 RMR       0.065100
      6 C6          -0.6900    -0.0010     1.1970 ca         1 RMR       0.154100
      7 C7           2.1360     0.0010    -1.2780 c          1 RMR       0.594700
      8 N8           3.4840     0.0020    -1.2760 ns         1 RMR      -0.202900
      9 C9           4.2180     0.0030    -2.5440 c3         1 RMR       0.047000
     10 C10          5.7220     0.0030    -2.2630 c3         1 RMR       0.059900
     11 C11          6.4770     0.0040    -3.5670 cc         1 RMR       0.009600
     12 S12          6.9840    -1.4330    -4.4460 ss         1 RMR      -0.273800
     13 C13          7.7120    -0.4430    -5.7050 cc         1 RMR       0.011900
     14 C14          7.5430     0.8470    -5.4120 cd         1 RMR      -0.125000
     15 C15          6.8570     1.0940    -4.2350 cd         1 RMR      -0.122000
     16 O16         -2.0500     0.0040     1.1980 os         1 RMR      -0.291400
     17 C17         -2.7000     0.0110    -0.0750 c3         1 RMR       0.240200
     18 O18         -0.6750    -0.0040     3.5790 os         1 RMR      -0.311900
     19 C19         -1.0010     1.2680     4.1420 c3         1 RMR       0.253700
     20 O20          2.0750    -0.0020     3.5860 os         1 RMR      -0.291400
     21 C21          3.5020    -0.0010     3.5140 c3         1 RMR       0.240200
     22 O22          1.5290     0.0010    -2.3310 o          1 RMR      -0.646100
     23 H1          -0.5420     0.0010    -0.9380 ha         1 RMR       0.135500
     24 H2           3.1760     0.0000     1.2140 ha         1 RMR       0.135500
     25 H3           3.9830    -0.0330    -0.4090 hn         1 RMR       0.178500
     26 H4           3.9570    -0.8820    -3.1130 h1         1 RMR       0.034200
     27 H5           3.9560     0.8870    -3.1120 h1         1 RMR       0.034200
     28 H6           5.9820     0.8880    -1.6950 hc         1 RMR       0.022700
     29 H7           5.9830    -0.8810    -1.6950 hc         1 RMR       0.022700
     30 H9           8.2210    -0.8230    -6.5820 h4         1 RMR       0.149000
     31 H11          7.9100     1.6420    -6.0500 ha         1 RMR       0.121000
     32 H13          6.6510     2.0960    -3.8800 ha         1 RMR       0.122000
     33 H15         -2.4250    -0.8810    -0.6250 h1         1 RMR      -0.000800
     34 H16         -2.3930     0.8880    -0.6320 h1         1 RMR      -0.000800
     35 H17         -3.7730     0.0310     0.0680 h1         1 RMR      -0.000800
     36 H18         -0.5340     1.3630     5.1150 h1         1 RMR      -0.008967
     37 H19         -2.0760     1.3520     4.2480 h1         1 RMR      -0.008967
     38 H20         -0.6400     2.0540     3.4900 h1         1 RMR      -0.008967
     39 H21          3.8390    -0.8920     2.9970 h1         1 RMR      -0.000800
     40 H22          3.8360     0.8770     2.9760 h1         1 RMR      -0.000800
     41 H23          3.9140     0.0110     4.5160 h1         1 RMR      -0.000800
@<TRIPOS>BOND
     1     1     2 ar  
     2     1     6 ar  
     3     1    23 1   
     4     2     3 ar  
     5     2     7 1   
     6     3     4 ar  
     7     3    24 1   
     8     4     5 ar  
     9     4    20 1   
    10     5     6 ar  
    11     5    18 1   
    12     6    16 1   
    13     7     8 1   
    14     7    22 2   
    15     8     9 1   
    16     8    25 1   
    17     9    10 1   
    18     9    26 1   
    19     9    27 1   
    20    10    11 1   
    21    10    28 1   
    22    10    29 1   
    23    11    12 1   
    24    11    15 2   
    25    12    13 1   
    26    13    14 2   
    27    13    30 1   
    28    14    15 1   
    29    14    31 1   
    30    15    32 1   
    31    16    17 1   
    32    17    33 1   
    33    17    34 1   
    34    17    35 1   
    35    18    19 1   
    36    19    36 1   
    37    19    37 1   
    38    19    38 1   
    39    20    21 1   
    40    21    39 1   
    41    21    40 1   
    42    21    41 1   
@<TRIPOS>SUBSTRUCTURE
     1 RMR         1 TEMP              0 ****  ****    0 ROOT
