@<TRIPOS>MOLECULE
RMT
   40    41     1     0     0
SMALL
bcc


@<TRIPOS>ATOM
      1 N            0.0000     0.0000     0.0000 nb         1 RMT      -0.623000
      2 C            2.0270     0.0000     1.1920 ca         1 RMT      -0.002200
      3 O           -2.2570    -0.0030     3.3070 os         1 RMT      -0.488200
      4 C1           1.3180     0.0000     0.0000 ca         1 RMT       0.238600
      5 C10          5.9000    -2.0580     4.1870 ce         1 RMT      -0.230400
      6 C11          5.4330    -3.2310     4.5800 c2         1 RMT      -0.078200
      7 C12          3.9290    -3.2170     4.6440 c3         1 RMT      -0.168800
      8 C13          7.3250    -1.7410     4.0220 c          1 RMT       1.013800
      9 C15          3.4710    -3.5010     6.0510 c          1 RMT       1.007600
     10 C2          -0.6940    -0.0010     1.1210 ca         1 RMT       0.377200
     11 C3          -0.0590    -0.0020     2.3490 ca         1 RMT      -0.117600
     12 C4           1.3260    -0.0010     2.3940 ca         1 RMT      -0.092300
     13 C5           2.0550    -0.0030     3.7140 c3         1 RMT       0.192100
     14 C6          -0.8630    -0.0020     3.6230 c3         1 RMT       0.309700
     15 C7           2.0640     0.0010    -1.3100 c3         1 RMT      -0.017400
     16 C8           3.4880    -1.8300     4.2260 c2         1 RMT       0.410300
     17 C9           4.7740    -1.0920     3.9260 c3         1 RMT      -0.049500
     18 N1           2.2910    -1.3840     4.1390 n2         1 RMT      -0.502900
     19 O1           3.3860     0.0010     1.1870 oh         1 RMT      -0.472100
     20 O14          8.1670    -2.5870     4.2510 o          1 RMT      -0.937800
     21 O2          -4.8510     0.1280     3.7200 o          1 RMT      -0.761167
     22 O3          -3.3480    -1.3790     5.2630 o          1 RMT      -0.761167
     23 O4          -3.2070     1.1400     5.3480 o          1 RMT      -0.761167
     24 O5           7.7000    -0.5110     3.6150 o          1 RMT      -0.937800
     25 O6           2.8270    -2.6750     6.6550 o          1 RMT      -0.909800
     26 O7           3.7770    -4.6710     6.6330 o          1 RMT      -0.909800
     27 P           -3.4110    -0.0040     4.4290 p5         1 RMT       0.674900
     28 H2           5.9550    -4.1400     4.3080 ha         1 RMT       0.098000
     29 H4           3.5240    -3.9540     3.9610 hc         1 RMT       0.023700
     30 H5          -1.7760    -0.0010     1.0790 h4         1 RMT       0.027100
     31 H6           3.0040     0.5080     3.6030 h1         1 RMT       0.017200
     32 H7           1.4550     0.5070     4.4580 h1         1 RMT       0.017200
     33 H8          -0.6250     0.8820     4.2010 h1         1 RMT       0.014700
     34 H9          -0.6240    -0.8870     4.2010 h1         1 RMT       0.014700
     35 H10          2.6120     0.9290    -1.4130 hc         1 RMT      -0.012633
     36 H11          2.7570    -0.8320    -1.3310 hc         1 RMT      -0.012633
     37 H12          1.3590    -0.0950    -2.1270 hc         1 RMT      -0.012633
     38 H13          4.8670    -0.2320     4.5790 hc         1 RMT       0.025700
     39 H14          4.7880    -0.7810     2.8890 hc         1 RMT       0.025700
     40 H15          3.6990     0.8090     0.8160 ho         1 RMT       0.372000
@<TRIPOS>BOND
     1     1     4 ar  
     2     1    10 ar  
     3     2     4 ar  
     4     2    12 ar  
     5     2    19 1   
     6     3    14 1   
     7     3    27 1   
     8     4    15 1   
     9     5     6 2   
    10     5     8 1   
    11     5    17 1   
    12     6     7 1   
    13     6    28 1   
    14     7     9 1   
    15     7    16 1   
    16     7    29 1   
    17     8    20 1   
    18     8    24 1   
    19     9    25 1   
    20     9    26 1   
    21    10    11 ar  
    22    10    30 1   
    23    11    12 ar  
    24    11    14 1   
    25    12    13 1   
    26    13    18 1   
    27    13    31 1   
    28    13    32 1   
    29    14    33 1   
    30    14    34 1   
    31    15    35 1   
    32    15    36 1   
    33    15    37 1   
    34    16    17 1   
    35    16    18 2   
    36    17    38 1   
    37    17    39 1   
    38    19    40 1   
    39    21    27 1   
    40    22    27 1   
    41    23    27 1   
@<TRIPOS>SUBSTRUCTURE
     1 RMT         1 TEMP              0 ****  ****    0 ROOT
