@<TRIPOS>MOLECULE
molecule
   40    41     1     0     0
SMALL
bcc


@<TRIPOS>ATOM
      1 N            0.0000     0.0000     0.0000 nb         1 RMT      -0.730000
      2 C            2.0270     0.0000     1.1920 ca         1 RMT      -0.023200
      3 O           -2.2570    -0.0030     3.3070 os         1 RMT      -0.598200
      4 C1           1.3180     0.0000     0.0000 ca         1 RMT       0.315600
      5 C10          5.9000    -2.0580     4.1870 ce         1 RMT      -0.203400
      6 C11          5.4330    -3.2310     4.5800 c2         1 RMT      -0.106200
      7 C12          3.9290    -3.2170     4.6440 c3         1 RMT      -0.194800
      8 C13          7.3250    -1.7410     4.0220 c          1 RMT       0.907800
      9 C15          3.4710    -3.5010     6.0510 c          1 RMT       0.916600
     10 C2          -0.6940    -0.0010     1.1210 ca         1 RMT       0.413200
     11 C3          -0.0590    -0.0020     2.3490 ca         1 RMT      -0.131600
     12 C4           1.3260    -0.0010     2.3940 ca         1 RMT      -0.064300
     13 C5           2.0550    -0.0030     3.7140 c3         1 RMT       0.158100
     14 C6          -0.8630    -0.0020     3.6230 c3         1 RMT       0.245700
     15 C7           2.0640     0.0010    -1.3100 c3         1 RMT      -0.122400
     16 C8           3.4880    -1.8300     4.2260 c2         1 RMT       0.458300
     17 C9           4.7740    -1.0920     3.9260 c3         1 RMT      -0.132500
     18 N1           2.2910    -1.3840     4.1390 n2         1 RMT      -0.577900
     19 O1           3.3860     0.0010     1.1870 oh         1 RMT      -0.498100
     20 O14          8.1670    -2.5870     4.2510 o          1 RMT      -0.886800
     21 O2          -4.8510     0.1280     3.7200 o          1 RMT      -0.917833
     22 O3          -3.3480    -1.3790     5.2630 o          1 RMT      -0.917833
     23 O4          -3.2070     1.1400     5.3480 o          1 RMT      -0.917833
     24 O5           7.7000    -0.5110     3.6150 o          1 RMT      -0.886800
     25 O6           2.8270    -2.6750     6.6550 o          1 RMT      -0.856300
     26 O7           3.7770    -4.6710     6.6330 o          1 RMT      -0.856300
     27 P           -3.4110    -0.0040     4.4290 p5         1 RMT       1.194900
     28 H2           5.9550    -4.1400     4.3080 ha         1 RMT       0.122000
     29 H4           3.5240    -3.9540     3.9610 hc         1 RMT       0.051700
     30 H5          -1.7760    -0.0010     1.0790 h4         1 RMT       0.065100
     31 H6           3.0040     0.5080     3.6030 h1         1 RMT       0.045200
     32 H7           1.4550     0.5070     4.4580 h1         1 RMT       0.045200
     33 H8          -0.6240    -0.8870     4.2010 h1         1 RMT       0.056700
     34 H9          -0.6250     0.8820     4.2010 h1         1 RMT       0.056700
     35 H10          1.3590    -0.0950    -2.1270 hc         1 RMT       0.023700
     36 H11          2.7560    -0.8320    -1.3320 hc         1 RMT       0.023700
     37 H12          2.6120     0.9290    -1.4130 hc         1 RMT       0.023700
     38 H13          4.7880    -0.7810     2.8890 hc         1 RMT       0.054200
     39 H14          4.8670    -0.2320     4.5790 hc         1 RMT       0.054200
     40 H15          3.6990     0.8080     0.8140 ho         1 RMT       0.389000
@<TRIPOS>BOND
     1    23    27 1
     2    22    27 1
     3    27    21 1
     4    27     3 1
     5     3    14 1
     6    14    11 1
     7    20     8 1
     8    17    16 1
     9    17     5 1
    10    13    18 1
    11    13    12 1
    12    11    12 ar
    13    11    10 ar
    14     8     5 1
    15     8    24 1
    16    16    18 2
    17    16     7 1
    18     5     6 2
    19    12     2 ar
    20    10     1 ar
    21     7     6 1
    22     7     9 1
    23     2    19 1
    24     2     4 ar
    25     1     4 ar
    26    25     9 1
    27     4    15 1
    28     9    26 1
    29     6    28 1
    30     7    29 1
    31    10    30 1
    32    13    31 1
    33    13    32 1
    34    14    33 1
    35    14    34 1
    36    15    35 1
    37    15    36 1
    38    15    37 1
    39    17    38 1
    40    17    39 1
    41    19    40 1
@<TRIPOS>SUBSTRUCTURE
     1 RMT         1 TEMP              0 ****  ****    0 ROOT
