@<TRIPOS>MOLECULE
RN1
   30    31     1     0     0
SMALL
bcc


@<TRIPOS>ATOM
      1 C01        -0.3400   -0.6890    0.2800 ca        1 RN1     -0.141000
      2 C02         1.0670   -0.7600    0.1470 ca        1 RN1     -0.116000
      3 C03         1.8800   -0.4910    1.2210 ca        1 RN1     -0.129000
      4 C04         1.3230   -0.1380    2.4810 ca        1 RN1     -0.011000
      5 C05        -0.0870   -0.0700    2.6100 ca        1 RN1     -0.053000
      6 C06        -0.9060   -0.3510    1.4860 ca        1 RN1     -0.094000
      7 C07         2.1490    0.1470    3.6040 ca        1 RN1     -0.152000
      8 C08         1.5910    0.4870    4.8090 ca        1 RN1     -0.092000
      9 C09         0.1870    0.5600    4.9660 ca        1 RN1     -0.218000
     10 C10        -0.6330    0.2870    3.8890 ca        1 RN1      0.144100
     11 O11        -2.0140    0.3180    3.9250 os        1 RN1     -0.336900
     12 C12        -2.5920    0.7200    5.1730 c3        1 RN1      0.126400
     13 C13        -4.1050    0.7460    4.9320 c3        1 RN1      0.142100
     14 C14        -4.6750   -0.6740    4.9120 c3        1 RN1      0.091400
     15 O15        -4.6530    1.5010    6.0020 oh        1 RN1     -0.602800
     16 O16        -6.0700   -0.5380    4.6880 oh        1 RN1     -0.613800
     17 H1         -0.9720   -0.9060   -0.5930 ha        1 RN1      0.133000
     18 H2          1.4980   -1.0320   -0.8270 ha        1 RN1      0.132000
     19 H3          2.9750   -0.5430    1.1270 ha        1 RN1      0.134000
     20 H4         -1.9990   -0.2890    1.6050 ha        1 RN1      0.146000
     21 H5          3.2410    0.0890    3.4820 ha        1 RN1      0.134000
     22 H6          2.2270    0.7090    5.6790 ha        1 RN1      0.133000
     23 H7         -0.2210    0.8360    5.9480 ha        1 RN1      0.140000
     24 H8         -2.2330    1.7430    5.4560 h1        1 RN1      0.058200
     25 H9         -2.3240   -0.0180    5.9710 h1        1 RN1      0.058200
     26 H10        -4.3340    1.2550    3.9540 h1        1 RN1      0.065700
     27 H11        -4.1950   -1.2610    4.0850 h1        1 RN1      0.042200
     28 H12        -4.4940   -1.1840    5.8950 h1        1 RN1      0.042200
     29 H13        -5.6130    1.4300    5.9180 ho        1 RN1      0.426000
     30 H14        -6.4350   -1.4290    4.6540 ho        1 RN1      0.410000
@<TRIPOS>BOND
     1    1    2 ar  
     2    1    6 ar  
     3    1   17 1   
     4    2    3 ar  
     5    2   18 1   
     6    3    4 ar  
     7    3   19 1   
     8    4    5 ar  
     9    4    7 ar  
    10    5    6 ar  
    11    5   10 ar  
    12    6   20 1   
    13    7    8 ar  
    14    7   21 1   
    15    8    9 ar  
    16    8   22 1   
    17    9   10 ar  
    18    9   23 1   
    19   10   11 1   
    20   11   12 1   
    21   12   13 1   
    22   12   24 1   
    23   12   25 1   
    24   13   14 1   
    25   13   15 1   
    26   13   26 1   
    27   14   16 1   
    28   14   27 1   
    29   14   28 1   
    30   15   29 1   
    31   16   30 1   
@<TRIPOS>SUBSTRUCTURE
     1 RN1         1 TEMP              0 ****  ****    0 ROOT
