@<TRIPOS>MOLECULE
molecule
   30    31     1     0     0
SMALL
bcc


@<TRIPOS>ATOM
      1 C01          0.0000     0.0000     0.0000 ca         1 RN1      -0.142000
      2 C02          1.3920     0.0000     0.0000 ca         1 RN1      -0.113000
      3 C03          2.0930     0.0000     1.1670 ca         1 RN1      -0.129000
      4 C04          1.4040     0.0010     2.3920 ca         1 RN1      -0.003000
      5 C05         -0.0130     0.0020     2.3900 ca         1 RN1      -0.053000
      6 C06         -0.7010     0.0000     1.1670 ca         1 RN1      -0.091000
      7 C07          2.0930     0.0000     3.6170 ca         1 RN1      -0.157000
      8 C08          1.3940     0.0010     4.7850 ca         1 RN1      -0.085000
      9 C09          0.0020     0.0000     4.7900 ca         1 RN1      -0.239000
     10 C10         -0.7040     0.0020     3.6200 ca         1 RN1       0.161100
     11 O11         -2.0620     0.0030     3.6410 os         1 RN1      -0.322900
     12 C12         -2.6910     0.0030     4.9240 c3         1 RN1       0.130400
     13 C13         -4.2110     0.0040     4.7460 c3         1 RN1       0.152100
     14 C14         -4.8840    -0.1210     6.1150 c3         1 RN1       0.127400
     15 O15         -4.6170     1.2250     4.1250 oh         1 RN1      -0.590800
     16 O16         -6.2970    -0.2370     5.9410 oh         1 RN1      -0.605800
     17 H1          -0.5340    -0.0000    -0.9430 ha         1 RN1       0.129000
     18 H2           1.9260    -0.0000    -0.9430 ha         1 RN1       0.128000
     19 H3           3.1770     0.0000     1.1520 ha         1 RN1       0.134000
     20 H4          -1.7840     0.0000     1.1520 ha         1 RN1       0.144000
     21 H5           3.1760     0.0010     3.6310 ha         1 RN1       0.133000
     22 H6           1.9300    -0.0000     5.7270 ha         1 RN1       0.128000
     23 H7          -0.5290     0.0010     5.7340 ha         1 RN1       0.131000
     24 H8          -2.3920    -0.8820     5.4730 h1         1 RN1       0.046700
     25 H9          -2.3910     0.8870     5.4730 h1         1 RN1       0.046700
     26 H10         -4.5030    -0.8320     4.1220 h1         1 RN1       0.055700
     27 H11         -4.5090    -1.0020     6.6230 h1         1 RN1       0.030700
     28 H12         -4.6640     0.7590     6.7080 h1         1 RN1       0.030700
     29 H13         -5.1380     1.0330     3.3630 ho         1 RN1       0.414000
     30 H14         -6.7040    -0.4000     6.7760 ho         1 RN1       0.407000
@<TRIPOS>BOND
     1     2     1 ar
     2     2     3 ar
     3     1     6 ar
     4     3     4 ar
     5     6     5 ar
     6     4     5 ar
     7     4     7 ar
     8     5    10 ar
     9     7     8 ar
    10    10    11 1
    11    10     9 ar
    12     8     9 ar
    13    11    12 1
    14    14    16 1
    15    14    13 1
    16    12    13 1
    17    15    13 1
    18     1    17 1
    19     2    18 1
    20     3    19 1
    21     6    20 1
    22     7    21 1
    23     8    22 1
    24     9    23 1
    25    12    24 1
    26    12    25 1
    27    13    26 1
    28    14    27 1
    29    14    28 1
    30    15    29 1
    31    16    30 1
@<TRIPOS>SUBSTRUCTURE
     1 RN1         1 TEMP              0 ****  ****    0 ROOT
