@<TRIPOS>MOLECULE
molecule
   44    46     1     0     0
SMALL
bcc


@<TRIPOS>ATOM
      1 C4           0.0000     0.0000     0.0000 ca         1 RN8      -0.092500
      2 C5           1.3760    -0.0010     2.4200 ca         1 RN8      -0.092500
      3 C6           1.3760     0.0000     0.0000 ca         1 RN8      -0.092500
      4 C10          3.8040     2.2850     0.1470 cg         1 RN8       0.309300
      5 C13         -4.3240    -0.8410     1.6150 cd         1 RN8      -0.099900
      6 C15         -2.9860    -1.0720     1.7210 cc         1 RN8      -0.068500
      7 C17         -2.1770     0.0100     1.2110 cc         1 RN8      -0.046000
      8 C20          4.3210    -1.0330     1.6910 cd         1 RN8      -0.014700
      9 C22          3.7930    -2.2720     2.2610 c          1 RN8       0.896200
     10 O28          2.5910    -2.4410     2.3400 o          1 RN8      -0.817800
     11 O26          4.6410    -3.2260     2.7000 o          1 RN8      -0.817800
     12 S30          6.0240    -0.6530     1.5140 ss         1 RN8      -0.065300
     13 C14          5.6970     0.8620     0.8090 cd         1 RN8      -0.099900
     14 C2           7.1160     2.7700     1.5130 c3         1 RN8      -0.118600
     15 C18          3.5540     0.0010     1.2100 cc         1 RN8      -0.046000
     16 C16          4.3580     1.0880     0.7040 cc         1 RN8      -0.068500
     17 N24          3.3560     3.2390    -0.2780 n1         1 RN8      -0.418300
     18 C12          2.0750     0.0000     1.2110 ca         1 RN8       0.005500
     19 C11         -0.6980     0.0050     1.2100 ca         1 RN8       0.005500
     20 C3           0.0010     0.0050     2.4200 ca         1 RN8      -0.092500
     21 N23         -2.3020    -3.1080     2.8450 n1         1 RN8      -0.418300
     22 C19         -2.9390     1.0460     0.7270 cd         1 RN8      -0.014700
     23 S29         -4.6450     0.6700     0.8980 ss         1 RN8      -0.065300
     24 H4          -0.5410     0.0000    -0.9380 ha         1 RN8       0.119000
     25 H5           1.9180     0.0330     3.3580 ha         1 RN8       0.119000
     26 H6           1.9180     0.0350    -0.9380 ha         1 RN8       0.119000
     27 H7          -5.7610    -1.5030     3.0400 hc         1 RN8       0.158200
     28 H7A         -4.9680    -2.8020     2.1390 hc         1 RN8       0.158200
     29 H8           6.3310     2.8270     0.2870 hc         1 RN8       0.158200
     30 H8A          7.5710     1.8390     1.0720 hc         1 RN8       0.158200
     31 H2           7.7220     2.2360     2.2350 hc         1 RN8       0.049033
     32 H2A          6.1490     2.9930     1.9460 hc         1 RN8       0.049033
     33 H2B          7.6110     3.6940     1.2400 hc         1 RN8       0.049033
     34 H3          -0.5400     0.0540     3.3570 ha         1 RN8       0.119000
     35 H1          -4.8830    -1.7060     4.1550 hc         1 RN8       0.049033
     36 H1A         -6.4660    -2.3200     3.6600 hc         1 RN8       0.049033
     37 H1B         -6.2000    -0.5780     3.8080 hc         1 RN8       0.049033
     38 C21         -2.4080     2.2780     0.1480 c          1 RN8       0.896200
     39 C7          -5.3890    -1.8060     2.0690 c3         1 RN8      -0.261100
     40 C8           6.7570     1.8330     0.3570 c3         1 RN8      -0.261100
     41 O27         -1.2050     2.4430     0.0680 o          1 RN8      -0.817800
     42 O25         -3.2510     3.2320    -0.2990 o          1 RN8      -0.817800
     43 C1          -5.7470    -1.5210     3.5280 c3         1 RN8      -0.118600
     44 C9          -2.4360    -2.2690     2.2810 cg         1 RN8       0.309300
@<TRIPOS>BOND
     1     3     1 ar
     2    19     1 ar
     3     1    24 1
     4    18     2 ar
     5     2    20 ar
     6     2    25 1
     7    18     3 ar
     8     3    26 1
     9     5    39 1
    10    39    43 1
    11    39    27 1
    12    39    28 1
    13    13    40 1
    14    40    14 1
    15    40    29 1
    16    40    30 1
    17    16     4 1
    18     4    17 3
    19    23     5 1
    20     6     5 2
    21     7     6 1
    22     6    44 1
    23    22     7 2
    24    19     7 1
    25     9     8 1
    26     8    12 1
    27     8    15 2
    28    41    38 1
    29    42    38 1
    30    38    22 1
    31    10     9 1
    32    11     9 1
    33    12    13 1
    34    16    13 2
    35    14    31 1
    36    14    32 1
    37    14    33 1
    38    18    15 1
    39    15    16 1
    40    20    19 ar
    41    20    34 1
    42    44    21 3
    43    22    23 1
    44    43    35 1
    45    43    36 1
    46    43    37 1
@<TRIPOS>SUBSTRUCTURE
     1 RN8         1 TEMP              0 ****  ****    0 ROOT
