@<TRIPOS>MOLECULE
RN8
   44    47     1     0     0
SMALL
bcc


@<TRIPOS>ATOM
      1 C4           0.0000     0.0000     0.0000 ca         1 RN8      -0.071500
      2 C5           1.3760    -0.0010     2.4200 ca         1 RN8      -0.068000
      3 C6           1.3760     0.0000     0.0000 ca         1 RN8      -0.068000
      4 C10          3.8040     2.2850     0.1470 c1         1 RN8      -0.057000
      5 C13         -4.3240    -0.8410     1.6150 c2         1 RN8      -0.327000
      6 C15         -2.9860    -1.0720     1.7210 c2         1 RN8      -0.012000
      7 C17         -2.1770     0.0100     1.2110 c2         1 RN8      -0.055000
      8 C20          4.3210    -1.0330     1.6910 c2         1 RN8      -0.195000
      9 C22          3.7930    -2.2720     2.2610 c2         1 RN8       0.439000
     10 O28          2.5910    -2.4410     2.3400 o          1 RN8      -0.597000
     11 O26          4.6410    -3.2260     2.7000 o          1 RN8      -0.597000
     12 S30          6.0240    -0.6530     1.5140 ss         1 RN8       0.316000
     13 C14          5.6970     0.8620     0.8090 c2         1 RN8      -0.328000
     14 C2           7.1160     2.7700     1.5130 DU         1 RN8      -0.180000
     15 C18          3.5540     0.0010     1.2100 c2         1 RN8      -0.045000
     16 C16          4.3580     1.0880     0.7040 c2         1 RN8       0.010000
     17 N24          3.3560     3.2390    -0.2780 n1         1 RN8      -0.094000
     18 C12          2.0750     0.0000     1.2110 ca         1 RN8       0.004000
     19 C11         -0.6980     0.0050     1.2100 ca         1 RN8       0.010000
     20 C3           0.0010     0.0050     2.4200 ca         1 RN8      -0.071500
     21 N23         -2.3020    -3.1080     2.8450 n1         1 RN8      -0.094000
     22 C19         -2.9390     1.0460     0.7270 c2         1 RN8      -0.191000
     23 S29         -4.6450     0.6700     0.8980 ss         1 RN8       0.338000
     24 H4          -0.5410     0.0000    -0.9380 ha         1 RN8       0.094000
     25 H5           1.9180     0.0330     3.3580 ha         1 RN8       0.094500
     26 H6           1.9180     0.0350    -0.9380 ha         1 RN8       0.094500
     27 H7          -5.7610    -1.5030     3.0400 hc         1 RN8       0.143500
     28 H7A         -4.9680    -2.8020     2.1390 hc         1 RN8       0.143500
     29 H8           6.3310     2.8270     0.2870 hc         1 RN8       0.137000
     30 H8A          7.5710     1.8390     1.0720 DU         1 RN8       0.240000
     31 H2           7.7220     2.2360     2.2350 ha         1 RN8       0.045333
     32 H2A          6.1490     2.9930     1.9460 ha         1 RN8       0.045333
     33 H2B          7.6110     3.6940     1.2400 ha         1 RN8       0.045333
     34 H3          -0.5400     0.0540     3.3570 ha         1 RN8       0.094000
     35 H1          -4.8830    -1.7060     4.1550 hc         1 RN8       0.054667
     36 H1A         -6.4660    -2.3200     3.6600 hc         1 RN8       0.054667
     37 H1B         -6.2000    -0.5780     3.8080 hc         1 RN8       0.054667
     38 C21         -2.4080     2.2780     0.1480 c2         1 RN8       0.435000
     39 C7          -5.3890    -1.8060     2.0690 c3         1 RN8      -0.372000
     40 C8           6.7570     1.8330     0.3570 c3         1 RN8      -0.242000
     41 O27         -1.2050     2.4430     0.0680 o          1 RN8      -0.595500
     42 O25         -3.2510     3.2320    -0.2990 o          1 RN8      -0.595500
     43 C1          -5.7470    -1.5210     3.5280 c3         1 RN8       0.000000
     44 C9          -2.4360    -2.2690     2.2810 c1         1 RN8      -0.037000
@<TRIPOS>BOND
     1     1     3 1   
     2     1    19 1   
     3     1    24 1   
     4     2    18 1   
     5     2    20 1   
     6     2    25 1   
     7     3    18 1   
     8     3    26 1   
     9     4    16 1   
    10     4    17 1   
    11     5     6 1   
    12     5    23 1   
    13     5    39 1   
    14     6     7 1   
    15     6    44 1   
    16     7    19 1   
    17     7    22 1   
    18     8     9 1   
    19     8    12 1   
    20     8    15 1   
    21     9    10 1   
    22     9    11 1   
    23    12    13 1   
    24    13    16 1   
    25    13    40 1   
    26    14    30 1   
    27    14    31 1   
    28    14    32 1   
    29    14    33 1   
    30    14    40 1   
    31    15    16 1   
    32    15    18 1   
    33    19    20 1   
    34    20    34 1   
    35    21    44 1   
    36    22    23 1   
    37    22    38 1   
    38    27    39 1   
    39    28    39 1   
    40    29    40 1   
    41    30    40 1   
    42    35    43 1   
    43    36    43 1   
    44    37    43 1   
    45    38    41 1   
    46    38    42 1   
    47    39    43 1   
@<TRIPOS>SUBSTRUCTURE
     1 RN8         1 TEMP              0 ****  ****    0 ROOT
