@<TRIPOS>MOLECULE
RNA
   39    41     1     0     0
SMALL
bcc


@<TRIPOS>ATOM
      1 C           0.5390    0.4370   -0.0220 cc        1 RNA     -0.286300
      2 C1          1.9030    0.1370    0.2750 cc        1 RNA     -0.099300
      3 C2          1.9410   -0.3540    1.5870 cd        1 RNA      0.161500
      4 O           0.6300   -0.3670    2.1150 os        1 RNA     -0.368800
      5 C3         -0.2040    0.1200    1.1150 cd        1 RNA      0.361000
      6 C4         -1.6310    0.2060    1.4330 c3        1 RNA     -0.161400
      7 C5          2.9920   -1.2480    3.6570 cc        1 RNA     -0.273600
      8 S           1.6740   -1.4270    4.7090 ss        1 RNA      0.130200
      9 C6          2.6630   -1.9970    6.0060 cc        1 RNA      0.352800
     10 N           2.1180   -2.3120    7.1910 nh        1 RNA     -0.432100
     11 S1          5.3610   -2.5330    6.7470 sy        1 RNA      1.531900
     12 C7          5.9650   -3.8610    6.0330 ca        1 RNA     -0.490500
     13 C8          5.5480   -5.1500    6.4260 ca        1 RNA      0.018500
     14 C9          6.1220   -6.2880    5.8870 ca        1 RNA     -0.163500
     15 C10         7.1440   -6.1810    4.9280 ca        1 RNA      0.046700
     16 C11         7.5670   -4.9070    4.5240 ca        1 RNA     -0.163500
     17 C12         6.9860   -3.7690    5.0670 ca        1 RNA      0.018500
     18 C13         7.7740   -7.3960    4.3680 c3        1 RNA     -0.085800
     19 O14         6.2250   -1.4480    6.7430 o         1 RNA     -0.616300
     20 O1          4.7130   -2.8450    7.9560 o         1 RNA     -0.616300
     21 C15         4.2400   -1.6600    4.3270 c         1 RNA      0.726700
     22 N1          4.0150   -2.0900    5.6890 n         1 RNA     -0.450700
     23 O2          5.3730   -1.6640    3.8440 o         1 RNA     -0.533500
     24 C16         3.0230   -0.7920    2.3780 cf        1 RNA      0.039200
     25 H131        7.0480   -8.2450    4.3280 hc        1 RNA      0.070700
     26 H132        8.6350   -7.7030    5.0190 hc        1 RNA      0.070700
     27 H133        8.1660   -7.2100    3.3370 hc        1 RNA      0.070700
     28 H11         8.3690   -4.8080    3.7750 ha        1 RNA      0.161500
     29 H12         7.3260   -2.7680    4.7390 ha        1 RNA      0.163000
     30 H8          4.7640   -5.2480    7.1990 ha        1 RNA      0.163000
     31 H9          5.7850   -7.2850    6.2140 ha        1 RNA      0.161500
     32 HN          1.1350   -2.1950    7.3160 hn        1 RNA      0.341200
     33 H16         4.0150   -0.7490    1.8700 ha        1 RNA      0.187000
     34 H1          2.7530    0.2680   -0.3950 ha        1 RNA      0.185000
     35 H           0.1580    0.8370   -0.9600 ha        1 RNA      0.191000
     36 H41        -2.2270   -0.3080    0.6360 hc        1 RNA      0.082367
     37 H42        -1.9440    1.2820    1.4720 hc        1 RNA      0.082367
     38 H43        -1.8570   -0.2690    2.4200 hc        1 RNA      0.082367
     39 HN3         2.6610   -2.6230    7.9800 hn        1 RNA      0.341200
@<TRIPOS>BOND
     1    1    2 1   
     2    1    5 2   
     3    1   35 1   
     4    2    3 2   
     5    2   34 1   
     6    3    4 1   
     7    3   24 1   
     8    4    5 1   
     9    5    6 1   
    10    6   36 1   
    11    6   37 1   
    12    6   38 1   
    13    7    8 1   
    14    7   21 1   
    15    7   24 2   
    16    8    9 1   
    17    9   10 2   
    18    9   22 1   
    19   10   32 1   
    20   10   39 1   
    21   11   12 1   
    22   11   19 2   
    23   11   20 2   
    24   11   22 1   
    25   12   13 ar  
    26   12   17 ar  
    27   13   14 ar  
    28   13   30 1   
    29   14   15 ar  
    30   14   31 1   
    31   15   16 ar  
    32   15   18 1   
    33   16   17 ar  
    34   16   28 1   
    35   17   29 1   
    36   18   25 1   
    37   18   26 1   
    38   18   27 1   
    39   21   22 1   
    40   21   23 2   
    41   24   33 1   
@<TRIPOS>SUBSTRUCTURE
     1 RNA         1 TEMP              0 ****  ****    0 ROOT
