@<TRIPOS>MOLECULE
RNB
   45    45     1     0     0
SMALL
bcc


@<TRIPOS>ATOM
      1 CAA         0.6380   -0.6680    0.3910 c3        1 RNB     -0.057400
      2 CAO         1.8680    0.1410    0.2180 c2        1 RNB     -0.125400
      3 CAB         2.7210    0.2910    1.4210 c3        1 RNB     -0.057400
      4 CAJ         2.1920    0.7090   -0.9550 c2        1 RNB     -0.176200
      5 CAL         1.3670    0.5780   -2.1780 c3        1 RNB     -0.043200
      6 CAN         1.8930    1.4370   -3.3140 c3        1 RNB     -0.041200
      7 CAP         1.0750    1.2730   -4.5520 c2        1 RNB     -0.109400
      8 CAC         1.3170    0.0350   -5.3320 c3        1 RNB     -0.065900
      9 CAK         0.1950    2.2160   -4.9210 c2        1 RNB     -0.172200
     10 CAM        -0.6340    2.1790   -6.1540 c3        1 RNB      0.016100
     11 CAV        -2.0870    2.0610   -5.8370 ca        1 RNB     -0.150300
     12 CAS        -2.7610    0.8220   -5.9420 ca        1 RNB      0.249100
     13 OAG        -1.9720   -0.2120   -6.3510 oh        1 RNB     -0.497100
     14 CAU        -4.1380    0.7030   -5.6430 ca        1 RNB     -0.318600
     15 CAI        -4.8380   -0.5800   -5.7310 c         1 RNB      0.591500
     16 OAE        -4.3210   -1.6330   -6.1260 o         1 RNB     -0.570100
     17 CAQ        -4.8590    1.8530   -5.2410 ca        1 RNB      0.055700
     18 CAD        -6.3080    1.7410   -4.9340 c3        1 RNB     -0.078800
     19 CAT        -4.2040    3.0800   -5.1390 ca        1 RNB     -0.121600
     20 CL         -5.0360    4.4920   -4.6570 cl        1 RNB     -0.092400
     21 CAR        -2.8230    3.1820   -5.4340 ca        1 RNB      0.202100
     22 OAF        -2.1270    4.3600   -5.3520 oh        1 RNB     -0.480100
     23 H1         -0.2690   -0.0200    0.2830 hc        1 RNB      0.040033
     24 H2          0.5830   -1.4680   -0.3900 hc        1 RNB      0.040033
     25 H3          0.6070   -1.1530    1.3970 hc        1 RNB      0.040033
     26 H4          2.1330    0.7500    2.2550 hc        1 RNB      0.040033
     27 H5          3.6110    0.9370    1.2200 hc        1 RNB      0.040033
     28 H6          3.0830   -0.7120    1.7620 hc        1 RNB      0.040033
     29 H7          3.1120    1.3080   -1.0510 ha        1 RNB      0.121000
     30 H8          1.3460   -0.5000   -2.5010 hc        1 RNB      0.050700
     31 H9          0.3040    0.8670   -1.9520 hc        1 RNB      0.050700
     32 H10         2.9570    1.1510   -3.5370 hc        1 RNB      0.045700
     33 H11         1.8990    2.5110   -2.9900 hc        1 RNB      0.045700
     34 H12         1.8790   -0.7180   -4.7270 hc        1 RNB      0.045367
     35 H13         1.9200    0.2690   -6.2460 hc        1 RNB      0.045367
     36 H14         0.3500   -0.4250   -5.6590 hc        1 RNB      0.045367
     37 H15         0.0390    3.1160   -4.3020 ha        1 RNB      0.126000
     38 H16        -0.3250    1.3330   -6.8260 hc        1 RNB      0.066700
     39 H17        -0.4670    3.1400   -6.7200 hc        1 RNB      0.066700
     40 H18        -2.4830   -1.0350   -6.4260 ho        1 RNB      0.464000
     41 H19        -5.9050   -0.5810   -5.4120 h4        1 RNB      0.010200
     42 H20        -6.7630    2.7280   -4.6740 hc        1 RNB      0.061033
     43 H21        -6.8610    1.3370   -5.8200 hc        1 RNB      0.061033
     44 H22        -6.4650    1.0540   -4.0640 hc        1 RNB      0.061033
     45 H23        -2.7420    5.0670   -5.0910 ho        1 RNB      0.435000
@<TRIPOS>BOND
     1    1    2 1   
     2    1   23 1   
     3    1   24 1   
     4    1   25 1   
     5    2    3 1   
     6    2    4 2   
     7    3   26 1   
     8    3   27 1   
     9    3   28 1   
    10    4    5 1   
    11    4   29 1   
    12    5    6 1   
    13    5   30 1   
    14    5   31 1   
    15    6    7 1   
    16    6   32 1   
    17    6   33 1   
    18    7    8 1   
    19    7    9 2   
    20    8   34 1   
    21    8   35 1   
    22    8   36 1   
    23    9   10 1   
    24    9   37 1   
    25   10   11 1   
    26   10   38 1   
    27   10   39 1   
    28   11   12 ar  
    29   11   21 ar  
    30   12   13 1   
    31   12   14 ar  
    32   13   40 1   
    33   14   15 1   
    34   14   17 ar  
    35   15   16 2   
    36   15   41 1   
    37   17   18 1   
    38   17   19 ar  
    39   18   42 1   
    40   18   43 1   
    41   18   44 1   
    42   19   20 1   
    43   19   21 ar  
    44   21   22 1   
    45   22   45 1   
@<TRIPOS>SUBSTRUCTURE
     1 RNB         1 TEMP              0 ****  ****    0 ROOT
