@<TRIPOS>MOLECULE
molecule
   45    45     1     0     0
SMALL
bcc


@<TRIPOS>ATOM
      1 CAA          0.0000     0.0000     0.0000 c3         1 RNB      -0.094400
      2 CAO          1.5070     0.0000     0.0000 c2         1 RNB       0.038600
      3 CAB          2.2610     0.0000     1.3050 c3         1 RNB      -0.094400
      4 CAJ          2.1620    -0.0010    -1.1350 c2         1 RNB      -0.517200
      5 CAL          1.4130     0.1260    -2.4370 c3         1 RNB      -0.081200
      6 CAN          1.9810     1.2980    -3.2390 c3         1 RNB       0.001800
      7 CAP          1.2320     1.4240    -4.5410 c2         1 RNB      -0.126400
      8 CAC          1.6450     0.5980    -5.7310 c3         1 RNB      -0.057900
      9 CAK          0.2220     2.2520    -4.6380 c2         1 RNB      -0.174200
     10 CAM         -0.6080     2.2850    -5.8960 c3         1 RNB       0.012100
     11 CAV         -2.0610     2.0880    -5.5450 ca         1 RNB      -0.129300
     12 CAS         -2.5950     0.8130    -5.4960 ca         1 RNB       0.199100
     13 OAG         -1.8140    -0.2640    -5.7620 oh         1 RNB      -0.493100
     14 CAU         -3.9510     0.6400    -5.1670 ca         1 RNB      -0.254600
     15 CAI         -4.5290    -0.7060    -5.1110 c          1 RNB       0.581500
     16 OAE         -3.8170    -1.6780    -5.2540 o          1 RNB      -0.520100
     17 CAQ         -4.7470     1.7600    -4.8930 ca         1 RNB      -0.002300
     18 CAD         -6.2020     1.5820    -4.5400 c3         1 RNB      -0.064800
     19 CAT         -4.2070     3.0120    -4.9450 ca         1 RNB      -0.053600
     20 Cl          -5.1980     4.3960    -4.6040 cl         1 RNB      -0.093400
     21 CAR         -2.8610     3.1860    -5.2650 ca         1 RNB       0.171100
     22 OAF         -2.3330     4.4360    -5.3090 oh         1 RNB      -0.497100
     23 H1          -0.3610    -0.1200     1.0140 hc         1 RNB       0.051367
     24 H2          -0.3610     0.9380    -0.4030 hc         1 RNB       0.051367
     25 H3          -0.3610    -0.8180    -0.6110 hc         1 RNB       0.051367
     26 H4           2.1490     0.9640     1.7860 hc         1 RNB       0.051367
     27 H5           3.3100    -0.1900     1.1160 hc         1 RNB       0.051367
     28 H6           1.8650    -0.7740     1.9510 hc         1 RNB       0.051367
     29 H7           1.7000    -0.8550    -1.6140 ha         1 RNB       0.326000
     30 H8           1.5230    -0.7890    -3.0070 hc         1 RNB       0.034700
     31 H9           0.3640     0.3010    -2.2340 hc         1 RNB       0.034700
     32 H10          3.0300     1.1220    -3.4420 hc         1 RNB       0.059700
     33 H11          1.8710     2.2130    -2.6700 hc         1 RNB       0.059700
     34 H12          0.8910    -0.1550    -5.9280 hc         1 RNB       0.043033
     35 H13          1.7490     1.2390    -6.5980 hc         1 RNB       0.043033
     36 H14          2.5920     0.1140    -5.5240 hc         1 RNB       0.043033
     37 H15         -0.0730     2.8470    -3.7820 ha         1 RNB       0.134000
     38 H16         -0.2870     1.4930    -6.5610 hc         1 RNB       0.060700
     39 H17         -0.4810     3.2420    -6.3870 hc         1 RNB       0.060700
     40 H18         -2.0430    -0.6170    -6.6060 ho         1 RNB       0.435000
     41 H19         -5.5970    -0.8310    -4.9810 h4         1 RNB       0.005200
     42 H20         -6.7250     1.1400    -5.3790 hc         1 RNB       0.057367
     43 H21         -6.6380     2.5460    -4.3090 hc         1 RNB       0.057367
     44 H22         -6.2870     0.9310    -3.6780 hc         1 RNB       0.057367
     45 H23         -2.7690     4.9380    -5.9770 ho         1 RNB       0.431000
@<TRIPOS>BOND
     1    13    12 1
     2    16    15 2
     3    15    14 1
     4    12    14 ar
     5    12    11 ar
     6    10     9 1
     7    10    11 1
     8     9     7 2
     9    14    17 ar
    10    11    21 ar
    11     7     6 1
    12     7     8 1
    13     6     5 1
    14    17    18 1
    15    17    19 ar
    16    21    19 ar
    17    21    22 1
    18     5     4 1
    19     4     2 2
    20    19    20 1
    21     2     3 1
    22     2     1 1
    23     1    23 1
    24     1    24 1
    25     1    25 1
    26     3    26 1
    27     3    27 1
    28     3    28 1
    29     4    29 1
    30     5    30 1
    31     5    31 1
    32     6    32 1
    33     6    33 1
    34     8    34 1
    35     8    35 1
    36     8    36 1
    37     9    37 1
    38    10    38 1
    39    10    39 1
    40    13    40 1
    41    15    41 1
    42    18    42 1
    43    18    43 1
    44    18    44 1
    45    22    45 1
@<TRIPOS>SUBSTRUCTURE
     1 RNB         1 TEMP              0 ****  ****    0 ROOT
