@<TRIPOS>MOLECULE
RND
   61    65     1     0     0
SMALL
bcc


@<TRIPOS>ATOM
      1 C01          0.0000     0.0000     0.0000 ca         1 RND      -0.046000
      2 C02          1.3660     0.0000     0.0000 ca         1 RND      -0.142000
      3 C03          2.0720     0.0000     1.1960 ca         1 RND      -0.086000
      4 C04          1.4080    -0.0000     2.4020 ca         1 RND      -0.103000
      5 C05          0.0170    -0.0000     2.4270 ca         1 RND      -0.221200
      6 C06         -0.6930     0.0050     1.2120 ca         1 RND      -0.062800
      7 N07         -0.9130    -0.0010     3.4410 na         1 RND       0.364600
      8 C08         -2.1130     0.0030     1.5730 cc         1 RND      -0.168400
      9 C09         -2.1760    -0.0010     2.9140 cd         1 RND      -0.271100
     10 C10         -3.2790     0.0070     0.6200 c3         1 RND       0.257000
     11 N11         -3.5070    -1.3540     0.1190 n3         1 RND      -0.524600
     12 C12         -4.4760    -1.3540    -0.9850 c3         1 RND       0.146800
     13 C13         -4.5790    -2.7620    -1.5770 c3         1 RND      -0.037400
     14 C14         -5.0220    -3.7370    -0.4840 c3         1 RND       0.007700
     15 C15         -4.0220    -3.6840     0.6750 c3         1 RND      -0.037400
     16 C16         -3.9370    -2.2490     1.2020 c3         1 RND       0.146800
     17 N17         -6.3530    -3.3600     0.0000 ns         1 RND      -0.118900
     18 C18         -7.1550    -4.2880     0.5570 c          1 RND       0.545100
     19 C19         -8.5240    -3.9000     1.0540 c3         1 RND      -0.157500
     20 O20         -6.7770    -5.4360     0.6590 o          1 RND      -0.647100
     21 C21         -8.3990    -3.2380     2.4280 c3         1 RND       0.090800
     22 N22         -9.3650    -5.1000     1.1630 nz         1 RND       0.085400
     23 C23         -9.7500    -2.7400     2.8710 cc         1 RND      -0.275400
     24 N24        -11.4950    -1.4180     3.2390 na         1 RND       0.395600
     25 C25        -10.2350    -1.4980     2.7120 cd         1 RND      -0.205100
     26 C26        -10.7870    -3.5200     3.5510 ca         1 RND      -0.081800
     27 C27        -11.8630    -2.6380     3.7610 ca         1 RND      -0.225200
     28 C28        -13.0090    -3.1010     4.3970 ca         1 RND      -0.056000
     29 C29        -13.0800    -4.4120     4.8110 ca         1 RND      -0.098000
     30 C30        -12.0160    -5.2800     4.6020 ca         1 RND      -0.075000
     31 C31        -10.8800    -4.8450     3.9790 ca         1 RND      -0.184000
     32 H1          -0.3000     0.1000    -1.0360 ha         1 RND       0.107000
     33 H2           1.9430     0.0050    -0.9170 ha         1 RND       0.106000
     34 H3           3.1560     0.0050     1.1830 ha         1 RND       0.105000
     35 H4           2.0310    -0.0020     3.2890 ha         1 RND       0.105000
     36 H5          -0.6970    -0.0040     4.4190 hn         1 RND       0.116700
     37 H6          -3.0920    -0.0020     3.4940 h4         1 RND       0.133000
     38 H7          -3.0640     0.6670    -0.2120 h1         1 RND       0.007700
     39 H8          -4.1660     0.3550     1.1370 h1         1 RND       0.007700
     40 H10         -4.1460    -0.6650    -1.7530 h1         1 RND       0.008950
     41 H11         -5.4460    -1.0490    -0.6120 h1         1 RND       0.008950
     42 H12         -5.3070    -2.7630    -2.3790 hc         1 RND       0.039700
     43 H13         -3.6110    -3.0640    -1.9590 hc         1 RND       0.039700
     44 H14         -5.0500    -4.7420    -0.8880 h1         1 RND       0.063700
     45 H15         -4.3550    -4.3410     1.4700 hc         1 RND       0.039700
     46 H16         -3.0460    -3.9980     0.3240 hc         1 RND       0.039700
     47 H17         -3.2180    -2.2050     2.0110 h1         1 RND       0.008950
     48 H18         -4.9110    -1.9390     1.5600 h1         1 RND       0.008950
     49 H19         -6.6780    -2.4200    -0.1120 hn         1 RND       0.185500
     50 H20         -8.9770    -3.2040     0.3580 hx         1 RND       0.087700
     51 H21         -8.0290    -3.9610     3.1450 hc         1 RND       0.048700
     52 H22         -7.7100    -2.4050     2.3660 hc         1 RND       0.048700
     53 H23         -9.2340    -5.6730     0.3530 hn         1 RND       0.233467
     54 H24        -10.3260    -4.8290     1.2290 hn         1 RND       0.233467
     55 H26        -12.0650    -0.5950     3.2430 hn         1 RND       0.131700
     56 H27         -9.7070    -0.6800     2.2370 h4         1 RND       0.148000
     57 H28        -13.8790    -2.4870     4.6010 ha         1 RND       0.118000
     58 H29        -13.9770    -4.7630     5.3070 ha         1 RND       0.121000
     59 H30        -12.1850    -6.2960     4.9360 ha         1 RND       0.116000
     60 H31        -10.1230    -5.4980     4.3970 ha         1 RND       0.131000
     61 H223        -9.0780    -5.6370     1.9580 hn         1 RND       0.233467
@<TRIPOS>BOND
     1     1     2 ar  
     2     1     6 ar  
     3     1    32 1   
     4     2     3 ar  
     5     2    33 1   
     6     3     4 ar  
     7     3    34 1   
     8     4     5 ar  
     9     4    35 1   
    10     5     6 ar  
    11     5     7 1   
    12     6     8 1   
    13     7     9 1   
    14     7    36 1   
    15     8     9 2   
    16     8    10 1   
    17     9    37 1   
    18    10    11 1   
    19    10    38 1   
    20    10    39 1   
    21    11    12 1   
    22    11    16 1   
    23    12    13 1   
    24    12    40 1   
    25    12    41 1   
    26    13    14 1   
    27    13    42 1   
    28    13    43 1   
    29    14    15 1   
    30    14    17 1   
    31    14    44 1   
    32    15    16 1   
    33    15    45 1   
    34    15    46 1   
    35    16    47 1   
    36    16    48 1   
    37    17    18 1   
    38    17    49 1   
    39    18    19 1   
    40    18    20 2   
    41    19    21 1   
    42    19    22 1   
    43    19    50 1   
    44    21    23 1   
    45    21    51 1   
    46    21    52 1   
    47    22    53 1   
    48    22    54 1   
    49    22    61 1   
    50    23    25 2   
    51    23    26 1   
    52    24    25 1   
    53    24    27 1   
    54    24    55 1   
    55    25    56 1   
    56    26    27 ar  
    57    26    31 ar  
    58    27    28 ar  
    59    28    29 ar  
    60    28    57 1   
    61    29    30 ar  
    62    29    58 1   
    63    30    31 ar  
    64    30    59 1   
    65    31    60 1   
@<TRIPOS>SUBSTRUCTURE
     1 RND         1 TEMP              0 ****  ****    0 ROOT
