@<TRIPOS>MOLECULE
molecule
   61    65     1     0     0
SMALL
bcc


@<TRIPOS>ATOM
      1 C01          0.0000     0.0000     0.0000 ca         1 RND      -0.077000
      2 C02          1.3660     0.0000     0.0000 ca         1 RND      -0.167000
      3 C03          2.0720     0.0000     1.1960 ca         1 RND      -0.109000
      4 C04          1.4080    -0.0000     2.4020 ca         1 RND      -0.145000
      5 C05          0.0170    -0.0000     2.4270 ca         1 RND      -0.032200
      6 C06         -0.6930     0.0050     1.2120 ca         1 RND      -0.071800
      7 N07         -0.9130    -0.0010     3.4410 na         1 RND      -0.177400
      8 C08         -2.1130     0.0030     1.5730 cc         1 RND      -0.161400
      9 C09         -2.1760    -0.0010     2.9140 cd         1 RND      -0.101100
     10 C10         -3.2790     0.0070     0.6200 c3         1 RND       0.246000
     11 N11         -3.5070    -1.3540     0.1190 n3         1 RND      -0.716600
     12 C12         -4.4760    -1.3540    -0.9850 c3         1 RND       0.162300
     13 C13         -4.5790    -2.7620    -1.5770 c3         1 RND      -0.092400
     14 C14         -5.0220    -3.7370    -0.4840 c3         1 RND       0.107700
     15 C15         -4.0220    -3.6840     0.6750 c3         1 RND      -0.092400
     16 C16         -3.9370    -2.2490     1.2020 c3         1 RND       0.162300
     17 N17         -6.3530    -3.3600     0.0000 ns         1 RND      -0.539900
     18 C18         -7.1550    -4.2880     0.5570 c          1 RND       0.632100
     19 C19         -8.5240    -3.9000     1.0540 c3         1 RND       0.025500
     20 O20         -6.7770    -5.4360     0.6590 o          1 RND      -0.602100
     21 C21         -8.3990    -3.2380     2.4280 c3         1 RND      -0.003200
     22 N22         -9.3650    -5.1000     1.1630 nz         1 RND      -0.787600
     23 C23         -9.7500    -2.7400     2.8710 cc         1 RND      -0.253400
     24 N24        -11.4950    -1.4180     3.2390 na         1 RND      -0.160400
     25 C25        -10.2350    -1.4980     2.7120 cd         1 RND      -0.043100
     26 C26        -10.7870    -3.5200     3.5510 ca         1 RND      -0.100800
     27 C27        -11.8630    -2.6380     3.7610 ca         1 RND      -0.031200
     28 C28        -13.0090    -3.1010     4.3970 ca         1 RND      -0.109000
     29 C29        -13.0800    -4.4120     4.8110 ca         1 RND      -0.116000
     30 C30        -12.0160    -5.2800     4.6020 ca         1 RND      -0.119000
     31 C31        -10.8800    -4.8450     3.9790 ca         1 RND      -0.195000
     32 H1          -0.3000     0.1000    -1.0360 ha         1 RND       0.135000
     33 H2           1.9430     0.0050    -0.9170 ha         1 RND       0.132000
     34 H3           3.1560     0.0050     1.1830 ha         1 RND       0.135000
     35 H4           2.0310    -0.0020     3.2890 ha         1 RND       0.131000
     36 H5          -0.6970    -0.0040     4.4190 hn         1 RND       0.300700
     37 H6          -3.0920    -0.0020     3.4940 h4         1 RND       0.157000
     38 H7          -3.0640     0.6670    -0.2120 h1         1 RND       0.037700
     39 H8          -4.1660     0.3550     1.1370 h1         1 RND       0.037700
     40 H10         -4.1460    -0.6650    -1.7530 h1         1 RND       0.032450
     41 H11         -5.4460    -1.0490    -0.6120 h1         1 RND       0.032450
     42 H12         -5.3070    -2.7630    -2.3790 hc         1 RND       0.070450
     43 H13         -3.6110    -3.0640    -1.9590 hc         1 RND       0.070450
     44 H14         -5.0500    -4.7420    -0.8880 h1         1 RND       0.086700
     45 H15         -4.3550    -4.3410     1.4700 hc         1 RND       0.070450
     46 H16         -3.0460    -3.9980     0.3240 hc         1 RND       0.070450
     47 H17         -3.2180    -2.2050     2.0110 h1         1 RND       0.032450
     48 H18         -4.9110    -1.9390     1.5600 h1         1 RND       0.032450
     49 H19         -6.6780    -2.4200    -0.1120 hn         1 RND       0.325500
     50 H20         -8.9770    -3.2040     0.3580 hx         1 RND       0.113700
     51 H21         -8.0290    -3.9610     3.1450 hc         1 RND       0.088700
     52 H22         -7.7100    -2.4050     2.3660 hc         1 RND       0.088700
     53 H23         -9.2340    -5.6730     0.3530 hn         1 RND       0.463800
     54 H24        -10.3260    -4.8290     1.2290 hn         1 RND       0.463800
     55 H26        -12.0650    -0.5950     3.2430 hn         1 RND       0.319700
     56 H27         -9.7070    -0.6800     2.2370 h4         1 RND       0.177000
     57 H28        -13.8790    -2.4870     4.6010 ha         1 RND       0.150000
     58 H29        -13.9770    -4.7630     5.3070 ha         1 RND       0.153000
     59 H30        -12.1850    -6.2960     4.9360 ha         1 RND       0.147000
     60 H31        -10.1230    -5.4980     4.3970 ha         1 RND       0.151000
     61 H223        -9.0780    -5.6370     1.9580 hn         1 RND       0.463800
@<TRIPOS>BOND
     1    15    16 1
     2    15    14 1
     3    22    19 1
     4    16    11 1
     5    30    31 ar
     6    30    29 ar
     7    14    17 1
     8    14    13 1
     9    17    18 1
    10    31    26 ar
    11    18    19 1
    12    18    20 2
    13    19    21 1
    14    29    28 ar
    15    11    10 1
    16    11    12 1
    17    10     8 1
    18    13    12 1
    19    26    23 1
    20    26    27 ar
    21    21    23 1
    22     9     8 2
    23     9     7 1
    24     8     6 1
    25    28    27 ar
    26    23    25 2
    27    27    24 1
    28     7     5 1
    29     6     5 ar
    30     6     1 ar
    31    25    24 1
    32     5     4 ar
    33     1     2 ar
    34     4     3 ar
    35     2     3 ar
    36     1    32 1
    37     2    33 1
    38     3    34 1
    39     4    35 1
    40     7    36 1
    41     9    37 1
    42    10    38 1
    43    10    39 1
    44    12    40 1
    45    12    41 1
    46    13    42 1
    47    13    43 1
    48    14    44 1
    49    15    45 1
    50    15    46 1
    51    16    47 1
    52    16    48 1
    53    17    49 1
    54    19    50 1
    55    21    51 1
    56    21    52 1
    57    22    53 1
    58    22    54 1
    59    24    55 1
    60    25    56 1
    61    28    57 1
    62    29    58 1
    63    30    59 1
    64    31    60 1
    65    61    22 1
@<TRIPOS>SUBSTRUCTURE
     1 RND         1 TEMP              0 ****  ****    0 ROOT
