@<TRIPOS>MOLECULE
RNE
   53    57     1     0     0
SMALL
bcc


@<TRIPOS>ATOM
      1 NAA          0.0000     0.0000     0.0000 nz         1 RNE       0.835000
      2 CAB          1.4690     0.0000     0.0000 c3         1 RNE      -0.204000
      3 CAC          1.9710     0.0000     1.4210 c2         1 RNE      -0.451000
      4 CAD          2.7850     0.9710     1.8410 c3         1 RNE       0.068000
      5 CAG          3.1620     1.0490     3.2510 c2         1 RNE      -0.264000
      6 CAF          3.9880     2.0370     3.6790 c2         1 RNE      -0.216000
      7 CAE          4.3510     2.1130     5.0380 c3         1 RNE      -0.310000
      8 CAH          5.1800     3.1020     5.4670 c3         1 RNE       0.115000
      9 CAI          5.5420     3.1780     6.8260 c2         1 RNE      -0.038000
     10 CAJ          6.3690     4.1650     7.2540 c2         1 RNE      -0.105000
     11 CAK          6.6490     4.3170     8.6810 c3         1 RNE      -0.137000
     12 CAL          5.6280     4.4830     9.5020 c2         1 RNE       0.012000
     13 CAM          5.7740     4.6600    10.9860 c3         1 RNE      -0.072000
     14 CAN          7.1610     4.2010    11.4370 c3         1 RNE      -0.114000
     15 CAO          8.2100     4.8620    10.5350 c3         1 RNE      -0.096000
     16 CAP          8.0810     4.2680     9.1290 c3         1 RNE      -0.034000
     17 CAQ          8.9440     5.0800     8.1600 c3         1 RNE      -0.121000
     18 CAR          8.5610     2.8150     9.1410 c3         1 RNE      -0.121000
     19 CAS          4.2400     4.4950     8.9170 c3         1 RNE      -0.096000
     20 CAT          5.7100     4.1180     4.4870 c3         1 RNE      -0.095000
     21 CAU          3.3150     1.9870     0.8620 c3         1 RNE      -0.113000
     22 HAA2        -0.3340     0.7760     0.5370 hn         1 RNE       0.011000
     23 HAA1        -0.3340     0.0770    -0.9400 hn         1 RNE       0.011000
     24 HAB2         1.8300    -0.8850    -0.5110 hx         1 RNE       0.111500
     25 HAB1         1.8300     0.8840    -0.5110 hx         1 RNE       0.111500
     26 HAC1         1.7000    -0.8070     2.0900 ha         1 RNE       0.153000
     27 HAG1         2.4140     1.6780     2.7820 DU         1 RNE       0.127000
     28 HAF1         4.7350     1.4080     4.1490 DU         1 RNE       0.265000
     29 HAE1         3.9420     1.4030     5.7480 hc         1 RNE       0.141000
     30 HAI1         6.1810     2.7090     6.0890 DU         1 RNE       0.065000
     31 HAJ1         7.1210     3.5690     7.7560 DU         1 RNE       0.166000
     32 HAM2         5.6440     5.7060    11.2360 hc         1 RNE       0.079000
     33 HAM1         5.0200     4.0680    11.4920 hc         1 RNE       0.079000
     34 HAN1         7.3260     4.5010    12.4650 hc         1 RNE       0.067500
     35 HAN2         7.2340     3.1240    11.3500 hc         1 RNE       0.067500
     36 HAO1         9.2020     4.6630    10.9230 hc         1 RNE       0.070000
     37 HAO2         8.0350     5.9300    10.4960 hc         1 RNE       0.070000
     38 HAQ3         9.9130     5.2640     8.6080 hc         1 RNE       0.054833
     39 HAQ1         8.4590     6.0240     7.9480 hc         1 RNE       0.054833
     40 HAQ2         9.0720     4.5240     7.2390 hc         1 RNE       0.054833
     41 HAR1         7.7490     2.1690     9.4510 hc         1 RNE       0.054833
     42 HAR2         8.8860     2.5340     8.1460 hc         1 RNE       0.054833
     43 HAR3         9.3880     2.7130     9.8330 hc         1 RNE       0.054833
     44 HAS3         3.9510     3.4860     8.6520 hc         1 RNE       0.070000
     45 HAS1         4.2270     5.1190     8.0310 hc         1 RNE       0.070000
     46 HAS2         3.5440     4.8910     9.6470 hc         1 RNE       0.070000
     47 HAT2         6.1070     4.9680     5.0280 hc         1 RNE       0.073667
     48 HAT3         4.9070     4.4460     3.8380 hc         1 RNE       0.073667
     49 HAT1         6.4960     3.6690     3.8920 hc         1 RNE       0.073667
     50 HAU3         2.5210     2.6700     0.5850 hc         1 RNE       0.063333
     51 HAU1         3.6800     1.4800    -0.0230 hc         1 RNE       0.063333
     52 HAU2         4.1250     2.5420     1.3200 hc         1 RNE       0.063333
     53 HAA3        -0.3340    -0.8550     0.3990 hn         1 RNE       0.011000
@<TRIPOS>BOND
     1     1     2 1   
     2     1    22 1   
     3     1    23 1   
     4     1    53 1   
     5     2     3 1   
     6     2    24 1   
     7     2    25 1   
     8     3     4 1   
     9     3    26 1   
    10     4     5 1   
    11     4    21 1   
    12     4    27 1   
    13     5     6 1   
    14     5    27 1   
    15     6     7 1   
    16     6    28 1   
    17     7     8 1   
    18     7    28 1   
    19     7    29 1   
    20     8     9 1   
    21     8    20 1   
    22     8    30 1   
    23     9    10 1   
    24     9    30 1   
    25    10    11 1   
    26    10    31 1   
    27    11    12 1   
    28    11    16 1   
    29    11    31 1   
    30    12    13 1   
    31    12    19 1   
    32    13    14 1   
    33    13    32 1   
    34    13    33 1   
    35    14    15 1   
    36    14    34 1   
    37    14    35 1   
    38    15    16 1   
    39    15    36 1   
    40    15    37 1   
    41    16    17 1   
    42    16    18 1   
    43    17    38 1   
    44    17    39 1   
    45    17    40 1   
    46    18    41 1   
    47    18    42 1   
    48    18    43 1   
    49    19    44 1   
    50    19    45 1   
    51    19    46 1   
    52    20    47 1   
    53    20    48 1   
    54    20    49 1   
    55    21    50 1   
    56    21    51 1   
    57    21    52 1   
@<TRIPOS>SUBSTRUCTURE
     1 RNE         1 TEMP              0 ****  ****    0 ROOT
