@<TRIPOS>MOLECULE
molecule
   53    53     1     0     0
SMALL
bcc


@<TRIPOS>ATOM
      1 NAA          0.0000     0.0000     0.0000 nz         1 RNE      -0.809600
      2 CAB          1.4690     0.0000     0.0000 c3         1 RNE       0.149000
      3 CAC          1.9710     0.0000     1.4210 c2         1 RNE      -0.350200
      4 CAD          2.7850     0.9710     1.8410 ce         1 RNE       0.059800
      5 CAG          3.1620     1.0490     3.2510 ce         1 RNE      -0.235000
      6 CAF          3.9880     2.0370     3.6790 cf         1 RNE      -0.015000
      7 CAE          4.3510     2.1130     5.0380 cf         1 RNE      -0.220000
      8 CAH          5.1800     3.1020     5.4670 ce         1 RNE       0.017800
      9 CAI          5.5420     3.1780     6.8260 ce         1 RNE      -0.191000
     10 CAJ          6.3690     4.1650     7.2540 cf         1 RNE      -0.041000
     11 CAK          6.6490     4.3170     8.6810 cf         1 RNE      -0.118200
     12 CAL          5.6280     4.4830     9.5020 c2         1 RNE      -0.087400
     13 CAM          5.7740     4.6600    10.9860 c3         1 RNE      -0.038200
     14 CAN          7.1610     4.2010    11.4370 c3         1 RNE      -0.082400
     15 CAO          8.2100     4.8620    10.5350 c3         1 RNE      -0.069400
     16 CAP          8.0810     4.2680     9.1290 c3         1 RNE      -0.013800
     17 CAQ          8.9440     5.0800     8.1600 c3         1 RNE      -0.081100
     18 CAR          8.5610     2.8150     9.1410 c3         1 RNE      -0.081100
     19 CAS          4.2400     4.4950     8.9170 c3         1 RNE      -0.063900
     20 CAT          5.7100     4.1180     4.4870 c3         1 RNE      -0.079900
     21 CAU          3.3150     1.9870     0.8620 c3         1 RNE      -0.088900
     22 HAA2        -0.3340     0.2220    -0.9170 hn         1 RNE       0.451467
     23 HAA1        -0.3340    -0.9050     0.2670 hn         1 RNE       0.451467
     24 HAB2         1.8300     0.8840    -0.5110 hx         1 RNE       0.105700
     25 HAB1         1.8300    -0.8850    -0.5110 hx         1 RNE       0.105700
     26 HAC1         1.5910    -0.7290     2.1260 ha         1 RNE       0.154000
     27 HAG1         2.7810     0.3190     3.9550 ha         1 RNE       0.148000
     28 HAF1         4.3680     2.7670     2.9750 ha         1 RNE       0.130000
     29 HAE1         3.9690     1.3830     5.7420 ha         1 RNE       0.144000
     30 HAI1         5.0900     2.5030     7.5430 ha         1 RNE       0.148000
     31 HAJ1         6.7500     4.8940     6.5490 ha         1 RNE       0.137000
     32 HAM2         5.6440     5.7060    11.2360 hc         1 RNE       0.056200
     33 HAM1         5.0200     4.0680    11.4920 hc         1 RNE       0.056200
     34 HAN1         7.3260     4.5000    12.4650 hc         1 RNE       0.049700
     35 HAN2         7.2340     3.1240    11.3500 hc         1 RNE       0.049700
     36 HAO1         9.2020     4.6630    10.9230 hc         1 RNE       0.050200
     37 HAO2         8.0350     5.9300    10.4960 hc         1 RNE       0.050200
     38 HAQ3         9.9220     5.2420     8.5970 hc         1 RNE       0.037867
     39 HAQ1         8.4710     6.0350     7.9680 hc         1 RNE       0.037867
     40 HAQ2         9.0500     4.5360     7.2290 hc         1 RNE       0.037867
     41 HAR1         9.4100     2.7210     9.8060 hc         1 RNE       0.037867
     42 HAR2         8.8520     2.5230     8.1390 hc         1 RNE       0.037867
     43 HAR3         7.7590     2.1730     9.4850 hc         1 RNE       0.037867
     44 HAS3         3.5570     4.9600     9.6170 hc         1 RNE       0.044033
     45 HAS1         4.2440     5.0560     7.9900 hc         1 RNE       0.044033
     46 HAS2         3.9210     3.4790     8.7220 hc         1 RNE       0.044033
     47 HAT2         6.5410     3.6910     3.9390 hc         1 RNE       0.054033
     48 HAT3         6.0450     4.9970     5.0240 hc         1 RNE       0.054033
     49 HAT1         4.9250     4.3950     3.7950 hc         1 RNE       0.054033
     50 HAU3         4.2670     2.3660     1.2140 hc         1 RNE       0.059700
     51 HAU1         2.6110     2.8060     0.7740 hc         1 RNE       0.059700
     52 HAU2         3.4480     1.5200    -0.1070 hc         1 RNE       0.059700
     53 HAA3        -0.3340     0.7230     0.6060 hn         1 RNE       0.451467
@<TRIPOS>BOND
     1     1     2 1
     2     2     3 1
     3     3     4 2
     4    21     4 1
     5     4     5 1
     6     5     6 2
     7     6     7 1
     8     7     8 2
     9    20     8 1
    10     8     9 1
    11     9    10 2
    12    17    16 1
    13    10    11 1
    14    11    16 1
    15    11    12 2
    16    16    18 1
    17    16    15 1
    18    19    12 1
    19    12    13 1
    20    15    14 1
    21    13    14 1
    22     1    22 1
    23     1    23 1
    24     2    24 1
    25     2    25 1
    26     3    26 1
    27     5    27 1
    28     6    28 1
    29     7    29 1
    30     9    30 1
    31    10    31 1
    32    13    32 1
    33    13    33 1
    34    14    34 1
    35    14    35 1
    36    15    36 1
    37    15    37 1
    38    17    38 1
    39    17    39 1
    40    17    40 1
    41    18    41 1
    42    18    42 1
    43    18    43 1
    44    19    44 1
    45    19    45 1
    46    19    46 1
    47    20    47 1
    48    20    48 1
    49    20    49 1
    50    21    50 1
    51    21    51 1
    52    21    52 1
    53    53     1 1
@<TRIPOS>SUBSTRUCTURE
     1 RNE         1 TEMP              0 ****  ****    0 ROOT
