@<TRIPOS>MOLECULE
molecule
   32    33     1     0     0
SMALL
bcc


@<TRIPOS>ATOM
      1 O            0.0000     0.0000     0.0000 o          1 RNG      -0.515100
      2 C            1.2270     0.0000     0.0000 c          1 RNG       0.569900
      3 CA           2.0940     0.0000     1.2280 c3         1 RNG      -0.213400
      4 CH           2.9900     1.2380     1.3040 c3         1 RNG       0.126700
      5 CG           2.1890     2.5490     1.2800 c3         1 RNG      -0.101400
      6 CF           1.5160     2.8230     2.6220 c3         1 RNG      -0.112400
      7 CE           2.5370     2.7010     3.7470 c3         1 RNG       0.100000
      8 N1           3.2170     1.4130     3.6960 n          1 RNG      -0.366400
      9 C1           3.2010     0.4740     4.7150 c          1 RNG       0.715500
     10 O1           2.5670     0.6020     5.7640 o          1 RNG      -0.614500
     11 CD           4.0560    -0.7550     4.4860 c3         1 RNG      -0.167400
     12 CC           5.5470    -0.4210     4.5160 c3         1 RNG      -0.076400
     13 CB           5.9420     0.8450     3.7560 c3         1 RNG      -0.164400
     14 C2           5.2390     0.9380     2.4190 c          1 RNG       0.713500
     15 O2           5.8710     0.7790     1.3730 o          1 RNG      -0.619500
     16 N2           3.8750     1.1830     2.4760 n          1 RNG      -0.360400
     17 H            1.7340    -0.0010    -0.9570 h4         1 RNG      -0.007800
     18 HA1          1.4600    -0.0290     2.1060 hc         1 RNG       0.075200
     19 HA2          2.7190    -0.8850     1.2170 hc         1 RNG       0.075200
     20 HH           3.6230     1.2360     0.4250 h1         1 RNG       0.082700
     21 HG1          2.8600     3.3670     1.0490 hc         1 RNG       0.056700
     22 HG2          1.4280     2.4820     0.5120 hc         1 RNG       0.056700
     23 HF1          1.2200     3.8650     2.6000 hc         1 RNG       0.069200
     24 HF2          0.8080     2.0170     2.7720 hc         1 RNG       0.069200
     25 HE1          3.2960     3.4440     3.5380 h1         1 RNG       0.076200
     26 HE2          1.9630     2.6950     4.6660 h1         1 RNG       0.076200
     27 HD1          3.8420    -1.4810     5.2600 hc         1 RNG       0.073700
     28 HD2          3.8100    -1.1780     3.5190 hc         1 RNG       0.073700
     29 HC1          6.0280    -1.2320     3.9830 hc         1 RNG       0.067700
     30 HC2          5.7660    -0.2060     5.5550 hc         1 RNG       0.067700
     31 HB1          5.5610     1.6710     4.3450 hc         1 RNG       0.086200
     32 HB2          6.9950     0.7310     3.5260 hc         1 RNG       0.086200
@<TRIPOS>BOND
     1     1     2 2
     2     2     3 1
     3     2    17 1
     4     3     4 1
     5     3    18 1
     6     3    19 1
     7     4     5 1
     8     4    16 1
     9     4    20 1
    10     5     6 1
    11     5    21 1
    12     5    22 1
    13     6     7 1
    14     6    23 1
    15     6    24 1
    16     7     8 1
    17     7    25 1
    18     7    26 1
    19     8     9 1
    20     8    16 1
    21     9    10 2
    22     9    11 1
    23    11    12 1
    24    11    27 1
    25    11    28 1
    26    12    13 1
    27    12    29 1
    28    12    30 1
    29    13    14 1
    30    13    31 1
    31    13    32 1
    32    14    15 2
    33    14    16 1
@<TRIPOS>SUBSTRUCTURE
     1 RNG         1 TEMP              0 ****  ****    0 ROOT
