@<TRIPOS>MOLECULE
molecule
   54    53     1     0     0
SMALL
bcc


@<TRIPOS>ATOM
      1 CAA          0.0000     0.0000     0.0000 c3         1 RNH      -0.081400
      2 CAB         11.8980     1.6580     4.7140 c3         1 RNH      -0.079600
      3 CAC         13.8140     1.6390     6.3190 c3         1 RNH      -0.079600
      4 OAD          5.6120     0.0000     5.1030 o          1 RNH      -0.600100
      5 OAE          9.7690    -0.0810     7.7130 o          1 RNH      -0.580100
      6 OAG         12.3670    -0.1110     7.9920 oh         1 RNH      -0.571800
      7 CAJ          1.5300     0.0000     0.0000 c3         1 RNH      -0.082400
      8 CAK          2.0400     0.0000     1.4430 c3         1 RNH      -0.078400
      9 CAL          3.5700    -0.0010     1.4430 c3         1 RNH      -0.101400
     10 CAM          4.0790    -0.0000     2.8860 c3         1 RNH       0.112000
     11 CAN          8.2350    -0.0000     5.4970 c3         1 RNH       0.126000
     12 CAO          7.7250    -0.0020     4.0530 c3         1 RNH      -0.179400
     13 CAP         11.5990     2.5560     7.0260 c3         1 RNH       0.148400
     14 NAQ          5.5450    -0.0010     2.8860 ns         1 RNH      -0.588900
     15 NAR          9.7000    -0.0010     5.4960 ns         1 RNH      -0.599900
     16 OAS         11.9910     3.8530     6.5730 oh         1 RNH      -0.618800
     17 CAT          6.2190    -0.0010     4.0530 c          1 RNH       0.660100
     18 CAU         10.3730    -0.0010     6.6640 c          1 RNH       0.628100
     19 CAV         11.8770     0.0990     6.6660 c3         1 RNH       0.085100
     20 CAW         12.2970     1.4880     6.1810 c3         1 RNH      -0.057000
     21 CAY         -0.5090     0.0000    -1.4430 c3         1 RNH      -0.084400
     22 CAZ         -2.0390     0.0000    -1.4430 c3         1 RNH      -0.092100
     23 HAA         -0.3610     0.8850     0.5110 hc         1 RNH       0.042700
     24 HAAA        -0.3610    -0.8850     0.5110 hc         1 RNH       0.042700
     25 HAB         11.9840     0.7060     4.2040 hc         1 RNH       0.041200
     26 HABA        12.5540     2.3800     4.2430 hc         1 RNH       0.041200
     27 HABB        10.8750     2.0070     4.6560 hc         1 RNH       0.041200
     28 HAC         14.3030     0.7680     5.9010 hc         1 RNH       0.041200
     29 HACA        14.0740     1.7320     7.3660 hc         1 RNH       0.041200
     30 HACB        14.1380     2.5250     5.7860 hc         1 RNH       0.041200
     31 HOAG        12.6050    -1.0170     8.0990 ho         1 RNH       0.407000
     32 HAJ          1.8910    -0.8850    -0.5110 hc         1 RNH       0.041700
     33 HAJA         1.8910     0.8850    -0.5110 hc         1 RNH       0.041700
     34 HAK          1.6790    -0.8840     1.9540 hc         1 RNH       0.046700
     35 HAKA         1.6790     0.8850     1.9540 hc         1 RNH       0.046700
     36 HAL          3.9320     0.8840     0.9320 hc         1 RNH       0.044700
     37 HALA         3.9310    -0.8860     0.9330 hc         1 RNH       0.044700
     38 HAM          3.7180    -0.8840     3.3970 h1         1 RNH       0.055700
     39 HAMA         3.7180     0.8850     3.3960 h1         1 RNH       0.055700
     40 HAN          7.8740    -0.8840     6.0080 h1         1 RNH       0.071700
     41 HANA         7.8750     0.8850     6.0060 h1         1 RNH       0.071700
     42 HAO          8.0860    -0.8870     3.5440 hc         1 RNH       0.061200
     43 HAOA         8.0870     0.8820     3.5420 hc         1 RNH       0.061200
     44 HAP         10.5260     2.4470     6.9260 h1         1 RNH       0.039700
     45 HAPA        11.8790     2.4370     8.0660 h1         1 RNH       0.039700
     46 HNAQ         6.0450    -0.0000     2.0190 hn         1 RNH       0.311500
     47 HNAR        10.1990    -0.0620     4.6310 hn         1 RNH       0.312500
     48 HOAS        11.6720     4.5050     7.1740 ho         1 RNH       0.405000
     49 HAV         12.2900    -0.6540     6.0060 h1         1 RNH       0.043700
     50 HAY         -0.1480     0.8850    -1.9530 hc         1 RNH       0.039700
     51 HAYA        -0.1480    -0.8840    -1.9530 hc         1 RNH       0.039700
     52 HAZ         -2.4000     0.1960    -2.4450 hc         1 RNH       0.033033
     53 HAZA        -2.4000     0.7700    -0.7720 hc         1 RNH       0.033033
     54 HAZB        -2.4000    -0.9660    -1.1120 hc         1 RNH       0.033033
@<TRIPOS>BOND
     1     1     7 1
     2     1    21 1
     3     2    20 1
     4     3    20 1
     5     4    17 2
     6     5    18 2
     7     6    19 1
     8     7     8 1
     9     8     9 1
    10     9    10 1
    11    10    14 1
    12    11    12 1
    13    11    15 1
    14    12    17 1
    15    13    16 1
    16    13    20 1
    17    14    17 1
    18    15    18 1
    19    18    19 1
    20    19    20 1
    21    21    22 1
    22     1    23 1
    23     1    24 1
    24     2    25 1
    25     2    26 1
    26     2    27 1
    27     3    28 1
    28     3    29 1
    29     3    30 1
    30     6    31 1
    31     7    32 1
    32     7    33 1
    33     8    34 1
    34     8    35 1
    35     9    36 1
    36     9    37 1
    37    10    38 1
    38    10    39 1
    39    11    40 1
    40    11    41 1
    41    12    42 1
    42    12    43 1
    43    13    44 1
    44    13    45 1
    45    14    46 1
    46    15    47 1
    47    16    48 1
    48    19    49 1
    49    21    50 1
    50    21    51 1
    51    22    52 1
    52    22    53 1
    53    22    54 1
@<TRIPOS>SUBSTRUCTURE
     1 RNH         1 TEMP              0 ****  ****    0 ROOT
