@<TRIPOS>MOLECULE
molecule
   29    30     1     0     0
SMALL
bcc


@<TRIPOS>ATOM
      1 C17          0.0000     0.0000     0.0000 cc         1 RNK       0.112400
      2 C22          2.0690     0.0000     3.6590 c3         1 RNK       0.120300
      3 C26          2.0640     0.0000     1.2260 c          1 RNK       0.691700
      4 C28          1.3820     0.0000     0.0000 cd         1 RNK      -0.187800
      5 C05         -2.9280    -1.1060    -3.3260 cd         1 RNK      -0.080300
      6 C06         -3.3920    -0.8650    -4.6080 cd         1 RNK      -0.159000
      7 C08         -3.5100     0.4240    -4.9300 cc         1 RNK      -0.056100
      8 S10         -3.0180     1.4210    -3.5660 ss         1 RNK      -0.141800
      9 C11         -2.6740    -0.0120    -2.6060 cc         1 RNK      -0.080400
     10 C12         -2.1640    -0.0060    -1.1870 c3         1 RNK       0.311100
     11 N15         -0.6990    -0.0050    -1.1960 nu         1 RNK      -0.793000
     12 C18         -0.6930     0.0000     1.2290 cc         1 RNK       0.349500
     13 N20         -0.0370    -0.0000     2.3560 nd         1 RNK      -0.407300
     14 N21          1.3610    -0.0000     2.3770 n          1 RNK      -0.210800
     15 O27          3.2850     0.0000     1.2510 o          1 RNK      -0.633500
     16 Cl2          2.2640    -0.0000    -1.4960 cl         1 RNK      -0.071400
     17 H1           2.6900     0.8850     3.7290 h1         1 RNK       0.058033
     18 H2           2.6910    -0.8840     3.7290 h1         1 RNK       0.058033
     19 H3           1.3490    -0.0000     4.4690 h1         1 RNK       0.058033
     20 H4          -3.0880    -3.2210    -3.5070 hc         1 RNK       0.048033
     21 H5          -3.2850    -2.6070    -1.8600 hc         1 RNK       0.048033
     22 H6          -1.6770    -2.6660    -2.5950 hc         1 RNK       0.048033
     23 H7          -3.6400    -1.6620    -5.2980 ha         1 RNK       0.153000
     24 H8          -3.8550     0.8000    -5.8860 h4         1 RNK       0.175000
     25 H9          -2.5230     0.8810    -0.6780 h1         1 RNK       0.052700
     26 H10         -2.5220    -0.8880    -0.6710 h1         1 RNK       0.052700
     27 H11         -0.2040     0.0320    -2.0650 hn         1 RNK       0.465800
     28 H12         -1.7760     0.0000     1.2370 h4         1 RNK       0.056800
     29 C01         -2.7310    -2.4970    -2.7840 c3         1 RNK      -0.035800
@<TRIPOS>BOND
     1     7     8 1
     2     7     6 2
     3     8     9 1
     4     6     5 1
     5     9     5 2
     6     9    10 1
     7     5    29 1
     8    10    11 1
     9    16     4 1
    10    11     1 1
    11     1     4 2
    12     1    12 1
    13     4     3 1
    14     3    15 2
    15     3    14 1
    16    12    13 2
    17    14    13 1
    18    14     2 1
    19     2    17 1
    20     2    18 1
    21     2    19 1
    22    29    20 1
    23    29    21 1
    24    29    22 1
    25     6    23 1
    26     7    24 1
    27    10    25 1
    28    10    26 1
    29    11    27 1
    30    12    28 1
@<TRIPOS>SUBSTRUCTURE
     1 RNK         1 TEMP              0 ****  ****    0 ROOT
