@<TRIPOS>MOLECULE
RNK
   29    30     1     0     0
SMALL
bcc


@<TRIPOS>ATOM
      1 C17          0.0000     0.0000     0.0000 cc         1 RNK      -0.037600
      2 C22          2.0690     0.0000     3.6590 c3         1 RNK       0.096300
      3 C26          2.0640     0.0000     1.2260 c          1 RNK       0.615700
      4 C28          1.3820     0.0000     0.0000 cd         1 RNK      -0.273800
      5 C05         -2.9280    -1.1060    -3.3260 cc         1 RNK      -0.083300
      6 C06         -3.3920    -0.8650    -4.6080 cc         1 RNK      -0.127000
      7 C08         -3.5100     0.4240    -4.9300 cd         1 RNK       0.025900
      8 S10         -3.0180     1.4210    -3.5660 ss         1 RNK      -0.259800
      9 C11         -2.6740    -0.0120    -2.6060 cd         1 RNK      -0.041400
     10 C12         -2.1640    -0.0060    -1.1870 c3         1 RNK       0.258100
     11 N15         -0.6990    -0.0050    -1.1960 nu         1 RNK      -0.385000
     12 C18         -0.6930     0.0000     1.2290 cc         1 RNK       0.371500
     13 N20         -0.0370    -0.0000     2.3560 nd         1 RNK      -0.482300
     14 N21          1.3610    -0.0000     2.3770 n          1 RNK       0.143200
     15 O27          3.2850     0.0000     1.2510 o          1 RNK      -0.686500
     16 Cl2          2.2640    -0.0000    -1.4960 cl         1 RNK       0.032600
     17 H1           2.6900     0.8850     3.7290 h1         1 RNK       0.022033
     18 H2           2.6910    -0.8840     3.7290 h1         1 RNK       0.022033
     19 H3           1.3490    -0.0000     4.4690 h1         1 RNK       0.022033
     20 H4          -3.0880    -3.2210    -3.5070 hc         1 RNK       0.013033
     21 H5          -3.2850    -2.6070    -1.8600 hc         1 RNK       0.013033
     22 H6          -1.6770    -2.6660    -2.5950 hc         1 RNK       0.013033
     23 H7          -3.6400    -1.6620    -5.2980 ha         1 RNK       0.127000
     24 H8          -3.8550     0.8000    -5.8860 h4         1 RNK       0.151000
     25 H9          -2.5230     0.8810    -0.6780 h1         1 RNK       0.026200
     26 H10         -2.5220    -0.8880    -0.6710 h1         1 RNK       0.026200
     27 H11         -0.2040     0.0320    -2.0650 hn         1 RNK       0.315800
     28 H12         -1.7760     0.0000     1.2370 h4         1 RNK       0.010800
     29 C01         -2.7310    -2.4970    -2.7840 c3         1 RNK       0.072200
@<TRIPOS>BOND
     1     1     4 2   
     2     1    11 1   
     3     1    12 1   
     4     2    14 1   
     5     2    17 1   
     6     2    18 1   
     7     2    19 1   
     8     3     4 1   
     9     3    14 1   
    10     3    15 2   
    11     4    16 1   
    12     5     6 1   
    13     5     9 2   
    14     5    29 1   
    15     6     7 2   
    16     6    23 1   
    17     7     8 1   
    18     7    24 1   
    19     8     9 1   
    20     9    10 1   
    21    10    11 1   
    22    10    25 1   
    23    10    26 1   
    24    11    27 1   
    25    12    13 2   
    26    12    28 1   
    27    13    14 1   
    28    20    29 1   
    29    21    29 1   
    30    22    29 1   
@<TRIPOS>SUBSTRUCTURE
     1 RNK         1 TEMP              0 ****  ****    0 ROOT
