@<TRIPOS>MOLECULE
molecule
   52    52     1     0     0
SMALL
bcc


@<TRIPOS>ATOM
      1 C1           0.0000     0.0000     0.0000 ca         1 RNN      -0.119500
      2 C2           1.3830     0.0000     0.0000 ca         1 RNN      -0.119500
      3 C3          -0.0000    -0.0060     2.3940 ca         1 RNN      -0.119500
      4 C4           1.3820    -0.0000     2.3950 ca         1 RNN      -0.119500
      5 C5          -0.6910    -0.0010     1.1970 ca         1 RNN      -0.089300
      6 C6           2.0740     0.0000     1.1980 ca         1 RNN      -0.089300
      7 C7          -5.0480    -3.3730     3.4940 c3         1 RNN      -0.070850
      8 C8          -5.3200    -5.2940     1.9200 c3         1 RNN      -0.070850
      9 C9           6.3720     3.4180     3.4640 c3         1 RNN      -0.070850
     10 C10          6.7170     5.3110     1.8690 c3         1 RNN      -0.070850
     11 C11         -2.1980     0.0060     1.1970 c3         1 RNN      -0.042100
     12 C12          3.5800    -0.0000     1.1980 c3         1 RNN      -0.042100
     13 C13         -2.7140    -1.4340     1.1930 c3         1 RNN       0.235800
     14 C14          4.0910     1.4420     1.1980 c3         1 RNN       0.235800
     15 C15         -4.6020    -3.9640     2.1550 c3         1 RNN      -0.211400
     16 C16          5.9670     3.9990     2.1070 c3         1 RNN      -0.211400
     17 N17         -4.1800    -1.4280     1.1920 n7         1 RNN      -0.917100
     18 N18          5.5560     1.4420     1.1990 n7         1 RNN      -0.917100
     19 O19         -4.4410    -3.2430    -0.4090 o          1 RNN      -0.629800
     20 O20         -6.3790    -2.4260     0.8920 o          1 RNN      -0.629800
     21 O21          5.8110     3.2220    -0.4410 o          1 RNN      -0.629800
     22 O22          7.7520     2.4400     0.8790 o          1 RNN      -0.629800
     23 S23         -5.0130    -2.8100     0.8170 s6         1 RNN       1.332900
     24 S24          6.3840     2.8170     0.7950 s6         1 RNN       1.332900
     25 H1          -0.5420     0.0020    -0.9380 ha         1 RNN       0.134500
     26 H2           1.9240     0.0010    -0.9380 ha         1 RNN       0.134500
     27 H3          -0.5430    -0.0060     3.3320 ha         1 RNN       0.134500
     28 H4           1.9230    -0.0020     3.3340 ha         1 RNN       0.134500
     29 H7          -6.0430    -2.9570     3.3910 hc         1 RNN       0.049700
     30 H7A         -4.3590    -2.5920     3.7920 hc         1 RNN       0.049700
     31 H7B         -5.0580    -4.1520     4.2470 hc         1 RNN       0.049700
     32 H8          -6.3920    -5.1310     1.9250 hc         1 RNN       0.049700
     33 H8A         -5.0570    -5.9910     2.7060 hc         1 RNN       0.049700
     34 H8B         -5.0220    -5.7020     0.9620 hc         1 RNN       0.049700
     35 H9           7.3410     2.9420     3.3780 hc         1 RNN       0.049700
     36 H9A          6.4240     4.2150     4.1960 hc         1 RNN       0.049700
     37 H9B          5.6370     2.6870     3.7780 hc         1 RNN       0.049700
     38 H10          6.4570     5.7040     0.8940 hc         1 RNN       0.049700
     39 H10A         7.7840     5.1300     1.9130 hc         1 RNN       0.049700
     40 H10B         6.4410     6.0280     2.6330 hc         1 RNN       0.049700
     41 H11         -2.5570     0.5160     2.0830 hc         1 RNN       0.056700
     42 H11A        -2.5570     0.5200     0.3140 hc         1 RNN       0.056700
     43 H12          3.9400    -0.5110     2.0830 hc         1 RNN       0.056700
     44 H12A         3.9410    -0.5110     0.3140 hc         1 RNN       0.056700
     45 H13         -2.3540    -1.9450     0.3070 h1         1 RNN       0.048700
     46 H13A        -2.3560    -1.9490     2.0760 h1         1 RNN       0.048700
     47 H14          3.7310     1.9530     0.3130 h1         1 RNN       0.048700
     48 H14A         3.7300     1.9530     2.0820 h1         1 RNN       0.048700
     49 H15         -3.5310    -4.1300     2.1720 h1         1 RNN       0.097700
     50 H16          4.9000     4.1860     2.0990 h1         1 RNN       0.097700
     51 HN17        -4.6770    -0.5810     1.3840 hn         1 RNN       0.456300
     52 HN18         6.0560     0.5990     1.4030 hn         1 RNN       0.456300
@<TRIPOS>BOND
     1     2     1 ar
     2     1     5 ar
     3     1    25 1
     4     6     2 ar
     5     2    26 1
     6     4     3 ar
     7     3     5 ar
     8     3    27 1
     9     6     4 ar
    10     4    28 1
    11     5    11 1
    12    12     6 1
    13    15     7 1
    14     7    29 1
    15     7    30 1
    16     7    31 1
    17    15     8 1
    18     8    32 1
    19     8    33 1
    20     8    34 1
    21    16     9 1
    22     9    35 1
    23     9    36 1
    24     9    37 1
    25    16    10 1
    26    10    38 1
    27    10    39 1
    28    10    40 1
    29    11    13 1
    30    11    41 1
    31    11    42 1
    32    12    14 1
    33    12    43 1
    34    12    44 1
    35    13    17 1
    36    13    45 1
    37    13    46 1
    38    14    18 1
    39    14    47 1
    40    14    48 1
    41    23    15 1
    42    15    49 1
    43    24    16 1
    44    16    50 1
    45    17    23 1
    46    17    51 1
    47    18    24 1
    48    18    52 1
    49    23    19 2
    50    20    23 2
    51    24    21 2
    52    22    24 2
@<TRIPOS>SUBSTRUCTURE
     1 RNN         1 TEMP              0 ****  ****    0 ROOT
