@<TRIPOS>MOLECULE
RNO
   19    20     1     0     0
SMALL
bcc


@<TRIPOS>ATOM
      1 C1           0.0000     0.0000     0.0000 ca         1 RNO      -0.450200
      2 C2           1.3820     0.0000     0.0000 ca         1 RNO      -0.010500
      3 C3           2.0740     0.0000     1.1970 ca         1 RNO      -0.106000
      4 C4           1.3830     0.0020     2.3940 ca         1 RNO      -0.028300
      5 C5          -0.0000     0.0040     2.3940 ca         1 RNO      -0.106000
      6 C6          -0.6910     0.0080     1.1970 ca         1 RNO      -0.010500
      7 C7           2.1360     0.0020     3.6990 cx         1 RNO       0.128400
      8 C8           2.3610    -1.3430     4.3930 cx         1 RNO       0.146400
      9 N1          -0.7400    -0.0010    -1.2830 no         1 RNO       1.048200
     10 O1          -0.1310    -0.0010    -2.3370 o          1 RNO      -0.449500
     11 O2          -1.9580    -0.0050    -1.2830 o          1 RNO      -0.449500
     12 O3           1.4250    -0.3760     4.8790 op         1 RNO      -0.385600
     13 H2           1.9240    -0.0040    -0.9380 ha         1 RNO       0.133500
     14 H3           3.1570    -0.0010     1.1960 ha         1 RNO       0.124500
     15 H5          -0.5420     0.0080     3.3320 ha         1 RNO       0.124500
     16 H6          -1.7750     0.0090     1.1970 ha         1 RNO       0.133500
     17 H7           2.9220     0.7310     3.8560 h1         1 RNO       0.067700
     18 H81          1.9310    -2.2050     3.8970 h1         1 RNO       0.043700
     19 H82          3.2800    -1.4330     4.9580 h1         1 RNO       0.043700
@<TRIPOS>BOND
     1     1     2 ar  
     2     1     6 ar  
     3     1     9 1   
     4     2     3 ar  
     5     2    13 1   
     6     3     4 ar  
     7     3    14 1   
     8     4     5 ar  
     9     4     7 1   
    10     5     6 ar  
    11     5    15 1   
    12     6    16 1   
    13     7     8 1   
    14     7    12 1   
    15     7    17 1   
    16     8    12 1   
    17     8    18 1   
    18     8    19 1   
    19     9    10 1   
    20     9    11 1   
@<TRIPOS>SUBSTRUCTURE
     1 RNO         1 TEMP              0 ****  ****    0 ROOT
