@<TRIPOS>MOLECULE
molecule
   38    39     1     0     0
SMALL
bcc


@<TRIPOS>ATOM
      1 C1           0.0000     0.0000     0.0000 ca         1 RNP       0.139100
      2 C2           1.3670     0.0000     0.0000 ca         1 RNP      -0.241000
      3 C3           2.0820     0.0000     1.1940 ca         1 RNP      -0.087000
      4 C4           1.4420     0.0010     2.3960 ca         1 RNP      -0.154000
      5 C5          -0.6560     0.0010     3.6620 ca         1 RNP      -0.128000
      6 C6          -2.0160     0.0010     3.6640 ca         1 RNP      -0.113000
      7 C7          -2.7360     0.0000     2.4710 ca         1 RNP      -0.141000
      8 C8          -2.0980    -0.0000     1.2680 ca         1 RNP      -0.092000
      9 C9          -0.6940     0.0050     1.2260 ca         1 RNP      -0.054000
     10 C10          0.0370     0.0010     2.4390 ca         1 RNP      -0.004000
     11 O1          -0.6820    -0.0010    -1.1740 os         1 RNP      -0.289900
     12 C11          0.2910    -0.0010    -2.2180 c3         1 RNP       0.111400
     13 C12         -0.4140    -0.0010    -3.5750 c3         1 RNP       0.107800
     14 O2          -1.2320    -1.1670    -3.6860 oh         1 RNP      -0.569800
     15 C13          0.6130    -0.0010    -4.6770 c2         1 RNP       0.378200
     16 N1           0.6440    -0.9600    -5.5230 n2         1 RNP      -0.558900
     17 C14          1.6420    -0.9620    -6.5940 c3         1 RNP       0.108500
     18 C15          2.5180    -2.2090    -6.4750 c3         1 RNP      -0.081100
     19 C16          0.9360    -0.9610    -7.9510 c3         1 RNP      -0.081100
     20 H2           1.9020    -0.0010    -0.9420 ha         1 RNP       0.139000
     21 H3           3.1650    -0.0000     1.1670 ha         1 RNP       0.128000
     22 H4           2.0140     0.0010     3.3160 ha         1 RNP       0.133000
     23 H5          -0.1090     0.0010     4.5970 ha         1 RNP       0.134000
     24 H6          -2.5480     0.0010     4.6080 ha         1 RNP       0.128000
     25 H7          -3.8190     0.0000     2.5010 ha         1 RNP       0.129000
     26 H8          -2.6700    -0.0010     0.3480 ha         1 RNP       0.144000
     27 H111         0.9110    -0.8850    -2.1340 h1         1 RNP       0.055700
     28 H112         0.9110     0.8840    -2.1340 h1         1 RNP       0.055700
     29 H12         -1.0340     0.8840    -3.6600 h1         1 RNP       0.050700
     30 HA          -2.1040    -0.9170    -3.9440 ho         1 RNP       0.406000
     31 H13          1.3260     0.8110    -4.7520 h4         1 RNP      -0.030200
     32 H14          2.2620    -0.0770    -6.5110 h1         1 RNP       0.022700
     33 H151         3.1850    -2.2650    -7.3260 hc         1 RNP       0.042033
     34 H152         3.1000    -2.1560    -5.5630 hc         1 RNP       0.042033
     35 H153         1.8890    -3.0910    -6.4510 hc         1 RNP       0.042033
     36 H161         0.2930    -1.8300    -8.0230 hc         1 RNP       0.042033
     37 H162         0.3410    -0.0620    -8.0480 hc         1 RNP       0.042033
     38 H163         1.6750    -0.9930    -8.7420 hc         1 RNP       0.042033
@<TRIPOS>BOND
     1     1     2 ar
     2     1     9 ar
     3     1    11 1
     4     2     3 ar
     5     2    20 1
     6     3     4 ar
     7     3    21 1
     8     4    10 ar
     9     4    22 1
    10     5     6 ar
    11     5    10 ar
    12     5    23 1
    13     6     7 ar
    14     6    24 1
    15     7     8 ar
    16     7    25 1
    17     8     9 ar
    18     8    26 1
    19     9    10 ar
    20    11    12 1
    21    12    13 1
    22    12    27 1
    23    12    28 1
    24    13    14 1
    25    13    15 1
    26    13    29 1
    27    14    30 1
    28    15    16 2
    29    15    31 1
    30    16    17 1
    31    17    18 1
    32    17    19 1
    33    17    32 1
    34    18    33 1
    35    18    34 1
    36    18    35 1
    37    19    36 1
    38    19    37 1
    39    19    38 1
@<TRIPOS>SUBSTRUCTURE
     1 RNP         1 TEMP              0 ****  ****    0 ROOT
