@<TRIPOS>MOLECULE
RNP
   38    40     1     0     0
SMALL
bcc


@<TRIPOS>ATOM
      1 C1           0.0000     0.0000     0.0000 ca         1 RNP       0.112000
      2 C2           1.3670     0.0000     0.0000 ca         1 RNP      -0.241000
      3 C3           2.0820     0.0000     1.1940 ca         1 RNP      -0.051000
      4 C4           1.4420     0.0010     2.3960 ca         1 RNP      -0.134000
      5 C5          -0.6560     0.0010     3.6620 ca         1 RNP      -0.100000
      6 C6          -2.0160     0.0010     3.6640 ca         1 RNP      -0.088000
      7 C7          -2.7360     0.0000     2.4710 ca         1 RNP      -0.116000
      8 C8          -2.0980    -0.0000     1.2680 ca         1 RNP      -0.068000
      9 C9          -0.6940     0.0050     1.2260 ca         1 RNP      -0.061000
     10 C10          0.0370     0.0010     2.4390 ca         1 RNP      -0.002000
     11 O1          -0.6820    -0.0010    -1.1740 os         1 RNP      -0.168000
     12 C11          0.2910    -0.0010    -2.2180 c3         1 RNP       0.049000
     13 C12         -0.4140    -0.0010    -3.5750 DU         1 RNP      -0.024000
     14 O2          -1.2320    -1.1670    -3.6860 oh         1 RNP      -0.302000
     15 C13          0.6130    -0.0010    -4.6770 c2         1 RNP      -0.449000
     16 N1           0.6440    -0.9600    -5.5230 n2         1 RNP       0.067000
     17 C14          1.6420    -0.9620    -6.5940 c3         1 RNP      -0.061000
     18 C15          2.5180    -2.2090    -6.4750 c3         1 RNP      -0.109000
     19 C16          0.9360    -0.9610    -7.9510 c3         1 RNP      -0.109000
     20 H2           1.9020    -0.0010    -0.9420 ha         1 RNP       0.138000
     21 H3           3.1650    -0.0000     1.1670 ha         1 RNP       0.099000
     22 H4           2.0140     0.0010     3.3160 ha         1 RNP       0.108000
     23 H5          -0.1090     0.0010     4.5970 ha         1 RNP       0.107000
     24 H6          -2.5480     0.0010     4.6080 ha         1 RNP       0.099000
     25 H7          -3.8190     0.0000     2.5010 ha         1 RNP       0.101000
     26 H8          -2.6700    -0.0010     0.3480 ha         1 RNP       0.112000
     27 H111         0.9110     0.8840    -2.1340 h1         1 RNP       0.071500
     28 H112         0.9120    -0.8850    -2.1340 h1         1 RNP       0.071500
     29 H12         -1.0340     0.8840    -3.6600 ha         1 RNP       0.058000
     30 HA          -2.1240    -0.9110    -3.8540 ho         1 RNP       0.185000
     31 H13         -0.4260     0.2750    -4.8090 DU         1 RNP       0.336000
     32 H14          2.2620    -0.0770    -6.5110 h1         1 RNP       0.074000
     33 H151         1.8900    -3.0910    -6.4610 hc         1 RNP       0.049167
     34 H152         3.1920    -2.2590    -7.3220 hc         1 RNP       0.049167
     35 H153         3.0930    -2.1600    -5.5580 hc         1 RNP       0.049167
     36 H161         0.3610    -0.0500    -8.0580 hc         1 RNP       0.049167
     37 H162         1.6740    -1.0190    -8.7420 hc         1 RNP       0.049167
     38 H163         0.2730    -1.8160    -8.0130 hc         1 RNP       0.049167
@<TRIPOS>BOND
     1     1     2 1   
     2     1     9 1   
     3     1    11 1   
     4     2     3 1   
     5     2    20 1   
     6     3     4 1   
     7     3    21 1   
     8     4    10 1   
     9     4    22 1   
    10     5     6 1   
    11     5    10 1   
    12     5    23 1   
    13     6     7 1   
    14     6    24 1   
    15     7     8 1   
    16     7    25 1   
    17     8     9 1   
    18     8    26 1   
    19     9    10 1   
    20    11    12 1   
    21    12    13 1   
    22    12    27 1   
    23    12    28 1   
    24    13    14 1   
    25    13    15 1   
    26    13    29 1   
    27    13    31 1   
    28    14    30 1   
    29    15    16 1   
    30    15    31 1   
    31    16    17 1   
    32    17    18 1   
    33    17    19 1   
    34    17    32 1   
    35    18    33 1   
    36    18    34 1   
    37    18    35 1   
    38    19    36 1   
    39    19    37 1   
    40    19    38 1   
@<TRIPOS>SUBSTRUCTURE
     1 RNP         1 TEMP              0 ****  ****    0 ROOT
