@<TRIPOS>MOLECULE
molecule
   67    71     1     0     0
SMALL
bcc


@<TRIPOS>ATOM
      1 N1           0.0000     0.0000     0.0000 nb         1 RNR      -0.691000
      2 C2           1.3290     0.0000     0.0000 ca         1 RNR       0.460600
      3 C3           2.0510     0.0000     1.2100 ca         1 RNR      -0.227300
      4 C4           3.4150    -0.0010     1.1820 ca         1 RNR       0.086100
      5 C5           4.1270    -0.0010    -0.0250 ca         1 RNR      -0.129500
      6 C6           3.4890    -0.0010    -1.2220 ca         1 RNR      -0.091500
      7 C7           2.0790    -0.0010    -1.2610 ca         1 RNR      -0.176800
      8 C8           1.3880    -0.0010    -2.4740 ca         1 RNR      -0.053000
      9 C9          -0.0080     0.0010    -2.4320 ca         1 RNR      -0.176800
     10 C10         -0.7750     0.0010    -3.6150 ca         1 RNR      -0.091500
     11 C11         -2.1300     0.0020    -3.5360 ca         1 RNR      -0.129500
     12 C12         -2.7900     0.0030    -2.3000 ca         1 RNR       0.086100
     13 C13         -2.1020     0.0030    -1.1210 ca         1 RNR      -0.227300
     14 C14         -0.6930     0.0000    -1.1350 ca         1 RNR       0.460600
     15 N15         -4.1850     0.0040    -2.2730 ns         1 RNR      -0.480600
     16 C16         -4.8770    -0.6640    -3.2170 c          1 RNR       0.658100
     17 O17         -4.2900    -1.3440    -4.0320 o          1 RNR      -0.592100
     18 C18         -6.3810    -0.5670    -3.2610 c3         1 RNR      -0.157400
     19 C19         -6.9140    -1.4130    -4.4190 c3         1 RNR       0.169800
     20 N20         -8.3800    -1.3170    -4.4600 n3         1 RNR      -0.719600
     21 C21         -8.9130    -1.9210    -5.6950 c3         1 RNR       0.128300
     22 C22         -9.9180    -3.0140    -5.2730 c3         1 RNR       0.146600
     23 F23        -11.0310    -3.0160    -6.1200 f          1 RNR      -0.238300
     24 C24        -10.3200    -2.5830    -3.8380 c3         1 RNR      -0.116400
     25 C25         -8.9880    -2.0020    -3.3000 c3         1 RNR       0.146800
     26 N26          4.1200    -0.0010     2.3870 ns         1 RNR      -0.480600
     27 C27          5.2870    -0.6700     2.4860 c          1 RNR       0.658100
     28 O28          5.6750    -1.3500     1.5600 o          1 RNR      -0.592100
     29 C29          6.1070    -0.5730     3.7470 c3         1 RNR      -0.157400
     30 C30          7.3720    -1.4200     3.5990 c3         1 RNR       0.169800
     31 N31          8.1720    -1.3250     4.8280 n3         1 RNR      -0.719600
     32 C32          9.2710    -2.3070     4.8190 c3         1 RNR       0.128300
     33 C33         10.5870    -1.5210     5.0010 c3         1 RNR       0.146600
     34 F34         11.4660    -2.2150     5.8390 f          1 RNR      -0.238300
     35 C35         10.1180    -0.2030     5.6690 c3         1 RNR      -0.116400
     36 C36          8.7480     0.0270     4.9810 c3         1 RNR       0.146800
     37 H3           1.5260    -0.0000     2.1570 ha         1 RNR       0.149500
     38 H5           5.2100    -0.0020    -0.0010 ha         1 RNR       0.158500
     39 H6           4.0590    -0.0010    -2.1430 ha         1 RNR       0.139000
     40 H8           1.9020    -0.2660    -3.3900 ha         1 RNR       0.144000
     41 H10         -0.2860     0.0000    -4.5820 ha         1 RNR       0.139000
     42 H11         -2.7140     0.0020    -4.4480 ha         1 RNR       0.158500
     43 H13         -2.6360     0.0030    -0.1780 ha         1 RNR       0.149500
     44 HN15        -4.6720     0.5320    -1.5760 hn         1 RNR       0.327500
     45 H18         -6.6720     0.4670    -3.4050 hc         1 RNR       0.070950
     46 H18A        -6.7930    -0.9310    -2.3270 hc         1 RNR       0.070950
     47 H19         -6.6240    -2.4470    -4.2740 h1         1 RNR       0.053200
     48 H19A        -6.5020    -1.0490    -5.3520 h1         1 RNR       0.053200
     49 H21         -9.4170    -1.1660    -6.2850 h1         1 RNR       0.062200
     50 H21A        -8.1060    -2.3650    -6.2650 h1         1 RNR       0.062200
     51 H22         -9.4380    -3.9850    -5.2580 h1         1 RNR       0.061200
     52 H24        -10.6320    -3.4380    -3.2520 hc         1 RNR       0.066700
     53 H24A       -11.0890    -1.8210    -3.8660 hc         1 RNR       0.066700
     54 H25         -9.1820    -1.2930    -2.5040 h1         1 RNR       0.045950
     55 H25A        -8.3430    -2.8000    -2.9540 h1         1 RNR       0.045950
     56 HN26         3.7090     0.4050     3.2040 hn         1 RNR       0.327500
     57 H29          5.5250    -0.9360     4.5850 hc         1 RNR       0.070950
     58 H29A         6.3820     0.4610     3.9190 hc         1 RNR       0.070950
     59 H30          7.0970    -2.4540     3.4270 h1         1 RNR       0.053200
     60 H30A         7.9540    -1.0570     2.7600 h1         1 RNR       0.053200
     61 H32          9.2860    -2.8340     3.8730 h1         1 RNR       0.062200
     62 H32A         9.1450    -3.0070     5.6360 h1         1 RNR       0.062200
     63 H33         11.0440    -1.3180     4.0400 h1         1 RNR       0.061200
     64 H35          9.9940    -0.3350     6.7380 hc         1 RNR       0.066700
     65 H35A        10.8020     0.6070     5.4470 hc         1 RNR       0.066700
     66 H36          8.8890     0.4880     4.0100 h1         1 RNR       0.045950
     67 H36A         8.1110     0.6390     5.6070 h1         1 RNR       0.045950
@<TRIPOS>BOND
     1     1     2 ar
     2     1    14 ar
     3     2     3 ar
     4     2     7 ar
     5     3     4 ar
     6     4     5 ar
     7     4    26 1
     8     5     6 ar
     9     6     7 ar
    10     7     8 ar
    11     8     9 ar
    12     9    10 ar
    13     9    14 ar
    14    10    11 ar
    15    11    12 ar
    16    12    13 ar
    17    12    15 1
    18    13    14 ar
    19    15    16 1
    20    16    17 2
    21    16    18 1
    22    18    19 1
    23    19    20 1
    24    20    21 1
    25    20    25 1
    26    21    22 1
    27    22    23 1
    28    22    24 1
    29    24    25 1
    30    26    27 1
    31    27    28 2
    32    27    29 1
    33    29    30 1
    34    30    31 1
    35    31    32 1
    36    31    36 1
    37    32    33 1
    38    33    34 1
    39    33    35 1
    40    35    36 1
    41     3    37 1
    42     5    38 1
    43     6    39 1
    44     8    40 1
    45    10    41 1
    46    11    42 1
    47    13    43 1
    48    15    44 1
    49    18    45 1
    50    18    46 1
    51    19    47 1
    52    19    48 1
    53    21    49 1
    54    21    50 1
    55    22    51 1
    56    24    52 1
    57    24    53 1
    58    25    54 1
    59    25    55 1
    60    26    56 1
    61    29    57 1
    62    29    58 1
    63    30    59 1
    64    30    60 1
    65    32    61 1
    66    32    62 1
    67    33    63 1
    68    35    64 1
    69    35    65 1
    70    36    66 1
    71    36    67 1
@<TRIPOS>SUBSTRUCTURE
     1 RNR         1 TEMP              0 ****  ****    0 ROOT
