@<TRIPOS>MOLECULE
molecule
   80    85     1     0     0
SMALL
bcc


@<TRIPOS>ATOM
      1 C1           0.0000     0.0000     0.0000 c3         1 RNY       0.123700
      2 O2           1.4290     0.0000     0.0000 os         1 RNY      -0.303900
      3 C3           2.0460     0.0000     1.2090 ca         1 RNY       0.166100
      4 C4           1.2900     0.0010     2.3600 ca         1 RNY      -0.269300
      5 C5           1.9290     0.0020     3.6060 ca         1 RNY       0.483600
      6 N6           1.2380     0.0020     4.7560 nb         1 RNY      -0.768000
      7 C7           1.8650     0.0020     5.9090 ca         1 RNY       0.713900
      8 N8           3.1840     0.0010     6.0110 nb         1 RNY      -0.821000
      9 C9           3.9620     0.0000     4.9370 ca         1 RNY       0.736200
     10 N10          5.3380    -0.0000     5.0570 nu         1 RNY      -0.748300
     11 C11          5.9290     0.1290     6.3170 ca         1 RNY       0.167600
     12 C12          5.2020     0.6590     7.3750 ca         1 RNY      -0.162000
     13 C13          5.7920     0.7850     8.6230 ca         1 RNY       0.065600
     14 N14          5.0630     1.3180     9.6910 ns         1 RNY      -0.467100
     15 C15          5.2770     0.8690    10.9440 c          1 RNY       0.673700
     16 O16          6.0340    -0.0630    11.1340 o          1 RNY      -0.585100
     17 C17          4.5900     1.5100    12.0880 ca         1 RNY      -0.091600
     18 C18          3.7140     2.5850    11.8900 ca         1 RNY      -0.267300
     19 C19          3.0930     3.1560    12.9810 ca         1 RNY       0.444200
     20 N20          3.3120     2.7050    14.2010 nb         1 RNY      -0.726000
     21 C21          4.1300     1.6930    14.4360 ca         1 RNY       0.611200
     22 C22          4.7930     1.0560    13.3920 ca         1 RNY      -0.207300
     23 N23          4.3280     1.2560    15.7420 nh         1 RNY      -0.696300
     24 C28          4.0110    -0.1730    15.8730 c3         1 RNY       0.131300
     25 C27          4.2980    -0.6240    17.3090 c3         1 RNY       0.135400
     26 O26          3.5440     0.1830    18.2160 os         1 RNY      -0.423600
     27 C25          3.8270     1.5810    18.1160 c3         1 RNY       0.135400
     28 C24          3.5350     2.0540    16.6890 c3         1 RNY       0.131300
     29 C29          7.1090     0.3810     8.8120 ca         1 RNY      -0.145000
     30 C30          7.8290    -0.1460     7.7580 ca         1 RNY      -0.092000
     31 C31          7.2420    -0.2780     6.5140 ca         1 RNY      -0.141300
     32 C32          8.0300    -0.8590     5.3680 c3         1 RNY      -0.045800
     33 C33          3.3450     0.0010     3.6630 ca         1 RNY      -0.312600
     34 C34          4.0910    -0.0010     2.4780 ca         1 RNY      -0.184000
     35 C35          3.4470    -0.0060     1.2740 ca         1 RNY       0.126100
     36 O36          4.1730    -0.0130     0.1230 os         1 RNY      -0.291900
     37 C37          5.5960    -0.0190     0.2540 c3         1 RNY       0.140400
     38 C38          6.2350    -0.0260    -1.1360 c3         1 RNY       0.155800
     39 N39          5.9140     1.2280    -1.8300 n3         1 RNY      -0.691600
     40 C43          6.6740     2.3660    -1.2500 c3         1 RNY       0.142300
     41 C42          6.6340     3.4290    -2.3770 c3         1 RNY      -0.087400
     42 C41          6.7650     2.5760    -3.6610 c3         1 RNY      -0.087400
     43 C40          6.3080     1.1630    -3.2530 c3         1 RNY       0.142300
     44 H11C        -0.3610     0.9010     0.4810 h1         1 RNY       0.046033
     45 H12C        -0.3610    -0.0340    -1.0210 h1         1 RNY       0.046033
     46 H13C        -0.3610    -0.8670     0.5400 h1         1 RNY       0.046033
     47 H4           0.2160     0.1320     2.3030 ha         1 RNY       0.164000
     48 H7           1.2760     0.0030     6.8180 h5         1 RNY       0.055100
     49 H10          5.9120    -0.0520     4.2390 hn         1 RNY       0.458800
     50 H12          4.2080     1.0560     7.2030 ha         1 RNY       0.177000
     51 H14          4.4030     2.0530     9.5290 hn         1 RNY       0.326500
     52 H29          7.5710     0.4820     9.7870 ha         1 RNY       0.159000
     53 H18          3.5260     2.9630    10.8920 ha         1 RNY       0.133000
     54 H22          5.4620     0.2280    13.5890 ha         1 RNY       0.170000
     55 H19          2.4140     3.9880    12.8340 h4         1 RNY       0.026100
     56 H241         3.8040     3.0990    16.5930 h1         1 RNY       0.059200
     57 H242         2.4810     1.9260    16.4750 h1         1 RNY       0.059200
     58 H281         2.9640    -0.3330    15.6470 h1         1 RNY       0.059200
     59 H282         4.6260    -0.7430    15.1870 h1         1 RNY       0.059200
     60 H251         4.8710     1.7550    18.3470 h1         1 RNY       0.056450
     61 H252         3.2010     2.1260    18.8110 h1         1 RNY       0.056450
     62 H271         5.3540    -0.5100    17.5180 h1         1 RNY       0.056450
     63 H272         4.0100    -1.6620    17.4250 h1         1 RNY       0.056450
     64 H30          8.8540    -0.4610     7.9080 ha         1 RNY       0.136000
     65 H321         7.4830    -1.6870     4.9360 hc         1 RNY       0.040033
     66 H322         8.1870    -0.0960     4.6140 hc         1 RNY       0.040033
     67 H323         8.9890    -1.2090     5.7310 hc         1 RNY       0.040033
     68 H34          5.1740    -0.0060     2.5160 ha         1 RNY       0.133000
     69 H371         5.9050    -0.9030     0.7980 h1         1 RNY       0.032700
     70 H372         5.9130     0.8660     0.7930 h1         1 RNY       0.032700
     71 H381         5.8500    -0.8630    -1.7060 h1         1 RNY       0.049200
     72 H382         7.3100    -0.1200    -1.0390 h1         1 RNY       0.049200
     73 H401         7.1250     0.4620    -3.3770 h1         1 RNY       0.040950
     74 H402         5.4600     0.8620    -3.8560 h1         1 RNY       0.040950
     75 H431         6.1820     2.7380    -0.3590 h1         1 RNY       0.040950
     76 H432         7.6950     2.0730    -1.0380 h1         1 RNY       0.040950
     77 H411         6.1200     2.9690    -4.4380 hc         1 RNY       0.050200
     78 H412         7.7960     2.5550    -3.9930 hc         1 RNY       0.050200
     79 H421         7.4700     4.1120    -2.2860 hc         1 RNY       0.050200
     80 H422         5.6910     3.9610    -2.3670 hc         1 RNY       0.050200
@<TRIPOS>BOND
     1     1     2 1
     2     2     3 1
     3     3     4 ar
     4     3    35 ar
     5     4     5 ar
     6     5     6 ar
     7     5    33 ar
     8     6     7 ar
     9     7     8 ar
    10     8     9 ar
    11     9    10 1
    12     9    33 ar
    13    10    11 1
    14    11    12 ar
    15    11    31 ar
    16    12    13 ar
    17    13    14 1
    18    13    29 ar
    19    14    15 1
    20    15    16 2
    21    15    17 1
    22    17    18 ar
    23    17    22 ar
    24    18    19 ar
    25    19    20 ar
    26    20    21 ar
    27    21    22 ar
    28    21    23 1
    29    23    28 1
    30    23    24 1
    31    28    27 1
    32    27    26 1
    33    26    25 1
    34    25    24 1
    35    29    30 ar
    36    30    31 ar
    37    31    32 1
    38    33    34 ar
    39    34    35 ar
    40    35    36 1
    41    36    37 1
    42    37    38 1
    43    38    39 1
    44    39    43 1
    45    39    40 1
    46    43    42 1
    47    42    41 1
    48    41    40 1
    49     1    44 1
    50     1    45 1
    51     1    46 1
    52     4    47 1
    53     7    48 1
    54    10    49 1
    55    12    50 1
    56    14    51 1
    57    29    52 1
    58    18    53 1
    59    22    54 1
    60    19    55 1
    61    28    56 1
    62    28    57 1
    63    24    58 1
    64    24    59 1
    65    27    60 1
    66    27    61 1
    67    25    62 1
    68    25    63 1
    69    30    64 1
    70    32    65 1
    71    32    66 1
    72    32    67 1
    73    34    68 1
    74    37    69 1
    75    37    70 1
    76    38    71 1
    77    38    72 1
    78    43    73 1
    79    43    74 1
    80    40    75 1
    81    40    76 1
    82    42    77 1
    83    42    78 1
    84    41    79 1
    85    41    80 1
@<TRIPOS>SUBSTRUCTURE
     1 RNY         1 TEMP              0 ****  ****    0 ROOT
