@<TRIPOS>MOLECULE
RNY
   80    85     1     0     0
SMALL
bcc


@<TRIPOS>ATOM
      1 C1           0.0000     0.0000     0.0000 c3         1 RNY       0.238700
      2 O2           1.4290     0.0000     0.0000 os         1 RNY      -0.286900
      3 C3           2.0460     0.0000     1.2090 ca         1 RNY       0.169100
      4 C4           1.2900     0.0010     2.3600 ca         1 RNY      -0.262300
      5 C5           1.9290     0.0020     3.6060 ca         1 RNY       0.451600
      6 N6           1.2380     0.0020     4.7560 nb         1 RNY      -0.673000
      7 C7           1.8650     0.0020     5.9090 ca         1 RNY       0.668900
      8 N8           3.1840     0.0010     6.0110 nb         1 RNY      -0.721000
      9 C9           3.9620     0.0000     4.9370 ca         1 RNY       0.538200
     10 N10          5.3380    -0.0000     5.0570 nu         1 RNY      -0.277300
     11 C11          5.9290     0.1290     6.3170 ca         1 RNY       0.009600
     12 C12          5.2020     0.6590     7.3750 ca         1 RNY      -0.151000
     13 C13          5.7920     0.7850     8.6230 ca         1 RNY      -0.077400
     14 N14          5.0630     1.3180     9.6910 ns         1 RNY      -0.023100
     15 C15          5.2770     0.8690    10.9440 c          1 RNY       0.579700
     16 O16          6.0340    -0.0630    11.1340 o          1 RNY      -0.630100
     17 C17          4.5900     1.5100    12.0880 ca         1 RNY      -0.102600
     18 C18          3.7140     2.5850    11.8900 ca         1 RNY      -0.242300
     19 C19          3.0930     3.1560    12.9810 ca         1 RNY       0.429200
     20 N20          3.3120     2.7050    14.2010 nb         1 RNY      -0.610000
     21 C21          4.1300     1.6930    14.4360 ca         1 RNY       0.481200
     22 C22          4.7930     1.0560    13.3920 ca         1 RNY      -0.177300
     23 N23          4.3280     1.2560    15.7420 nh         1 RNY      -0.465300
     24 C28          4.0110    -0.1730    15.8730 c3         1 RNY       0.099800
     25 C27          4.2980    -0.6240    17.3090 c3         1 RNY       0.212400
     26 O26          3.5440     0.1830    18.2160 os         1 RNY      -0.410600
     27 C25          3.8270     1.5810    18.1160 c3         1 RNY       0.212400
     28 C24          3.5350     2.0540    16.6890 c3         1 RNY       0.099800
     29 C29          7.1090     0.3810     8.8120 ca         1 RNY      -0.117000
     30 C30          7.8290    -0.1460     7.7580 ca         1 RNY      -0.061000
     31 C31          7.2420    -0.2780     6.5140 ca         1 RNY      -0.143300
     32 C32          8.0300    -0.8590     5.3680 c3         1 RNY       0.066200
     33 C33          3.3450     0.0010     3.6630 ca         1 RNY      -0.306600
     34 C34          4.0910    -0.0010     2.4780 ca         1 RNY      -0.178000
     35 C35          3.4470    -0.0060     1.2740 ca         1 RNY       0.129100
     36 O36          4.1730    -0.0130     0.1230 os         1 RNY      -0.269900
     37 C37          5.5960    -0.0190     0.2540 c3         1 RNY       0.197400
     38 C38          6.2350    -0.0260    -1.1360 c3         1 RNY       0.150800
     39 N39          5.9140     1.2280    -1.8300 n3         1 RNY      -0.530600
     40 C43          6.6740     2.3660    -1.2500 c3         1 RNY       0.147300
     41 C42          6.6340     3.4290    -2.3770 c3         1 RNY      -0.028400
     42 C41          6.7650     2.5760    -3.6610 c3         1 RNY      -0.028400
     43 C40          6.3080     1.1630    -3.2530 c3         1 RNY       0.147300
     44 H11C        -0.3610     0.9010     0.4810 h1         1 RNY       0.001367
     45 H12C        -0.3610    -0.0340    -1.0210 h1         1 RNY       0.001367
     46 H13C        -0.3610    -0.8670     0.5400 h1         1 RNY       0.001367
     47 H4           0.2160     0.1320     2.3030 ha         1 RNY       0.143000
     48 H7           1.2760     0.0030     6.8180 h5         1 RNY      -0.006900
     49 H10          5.9120    -0.0520     4.2390 hn         1 RNY       0.292800
     50 H12          4.2080     1.0560     7.2030 ha         1 RNY       0.161000
     51 H14          4.4030     2.0530     9.5290 hn         1 RNY       0.172500
     52 H29          7.5710     0.4820     9.7870 ha         1 RNY       0.139000
     53 H18          3.5260     2.9630    10.8920 ha         1 RNY       0.113000
     54 H22          5.4620     0.2280    13.5890 ha         1 RNY       0.146000
     55 H19          2.4140     3.9880    12.8340 h4         1 RNY      -0.018900
     56 H241         3.8040     3.0990    16.5930 h1         1 RNY       0.031700
     57 H242         2.4810     1.9260    16.4750 h1         1 RNY       0.031700
     58 H281         2.9640    -0.3330    15.6470 h1         1 RNY       0.031700
     59 H282         4.6260    -0.7430    15.1870 h1         1 RNY       0.031700
     60 H251         4.8710     1.7550    18.3470 h1         1 RNY       0.013950
     61 H252         3.2010     2.1260    18.8110 h1         1 RNY       0.013950
     62 H271         5.3540    -0.5100    17.5180 h1         1 RNY       0.013950
     63 H272         4.0100    -1.6620    17.4250 h1         1 RNY       0.013950
     64 H30          8.8540    -0.4610     7.9080 ha         1 RNY       0.107000
     65 H321         7.4830    -1.6870     4.9360 hc         1 RNY       0.005700
     66 H322         8.1870    -0.0960     4.6140 hc         1 RNY       0.005700
     67 H323         8.9890    -1.2090     5.7310 hc         1 RNY       0.005700
     68 H34          5.1740    -0.0060     2.5160 ha         1 RNY       0.121000
     69 H371         5.9050    -0.9030     0.7980 h1         1 RNY       0.000700
     70 H372         5.9130     0.8660     0.7930 h1         1 RNY       0.000700
     71 H381         5.8500    -0.8630    -1.7060 h1         1 RNY       0.019700
     72 H382         7.3100    -0.1200    -1.0390 h1         1 RNY       0.019700
     73 H401         7.1250     0.4620    -3.3770 h1         1 RNY       0.012950
     74 H402         5.4600     0.8620    -3.8560 h1         1 RNY       0.012950
     75 H431         6.1820     2.7380    -0.3590 h1         1 RNY       0.012950
     76 H432         7.6950     2.0730    -1.0380 h1         1 RNY       0.012950
     77 H411         6.1200     2.9690    -4.4380 hc         1 RNY       0.019450
     78 H412         7.7960     2.5550    -3.9930 hc         1 RNY       0.019450
     79 H421         7.4700     4.1120    -2.2860 hc         1 RNY       0.019450
     80 H422         5.6910     3.9610    -2.3670 hc         1 RNY       0.019450
@<TRIPOS>BOND
     1     1     2 1   
     2     1    44 1   
     3     1    45 1   
     4     1    46 1   
     5     2     3 1   
     6     3     4 ar  
     7     3    35 ar  
     8     4     5 ar  
     9     4    47 1   
    10     5     6 ar  
    11     5    33 ar  
    12     6     7 ar  
    13     7     8 ar  
    14     7    48 1   
    15     8     9 ar  
    16     9    10 1   
    17     9    33 ar  
    18    10    11 1   
    19    10    49 1   
    20    11    12 ar  
    21    11    31 ar  
    22    12    13 ar  
    23    12    50 1   
    24    13    14 1   
    25    13    29 ar  
    26    14    15 1   
    27    14    51 1   
    28    15    16 2   
    29    15    17 1   
    30    17    18 ar  
    31    17    22 ar  
    32    18    19 ar  
    33    18    53 1   
    34    19    20 ar  
    35    19    55 1   
    36    20    21 ar  
    37    21    22 ar  
    38    21    23 1   
    39    22    54 1   
    40    23    24 1   
    41    23    28 1   
    42    24    25 1   
    43    24    58 1   
    44    24    59 1   
    45    25    26 1   
    46    25    62 1   
    47    25    63 1   
    48    26    27 1   
    49    27    28 1   
    50    27    60 1   
    51    27    61 1   
    52    28    56 1   
    53    28    57 1   
    54    29    30 ar  
    55    29    52 1   
    56    30    31 ar  
    57    30    64 1   
    58    31    32 1   
    59    32    65 1   
    60    32    66 1   
    61    32    67 1   
    62    33    34 ar  
    63    34    35 ar  
    64    34    68 1   
    65    35    36 1   
    66    36    37 1   
    67    37    38 1   
    68    37    69 1   
    69    37    70 1   
    70    38    39 1   
    71    38    71 1   
    72    38    72 1   
    73    39    40 1   
    74    39    43 1   
    75    40    41 1   
    76    40    75 1   
    77    40    76 1   
    78    41    42 1   
    79    41    79 1   
    80    41    80 1   
    81    42    43 1   
    82    42    77 1   
    83    42    78 1   
    84    43    73 1   
    85    43    74 1   
@<TRIPOS>SUBSTRUCTURE
     1 RNY         1 TEMP              0 ****  ****    0 ROOT
