@<TRIPOS>MOLECULE
molecule
   78    82     1     0     0
SMALL
bcc


@<TRIPOS>ATOM
      1 C1           0.0000     0.0000     0.0000 ca         1 RO0      -0.146300
      2 C2           1.4190     0.0000     0.0000 ca         1 RO0       0.018000
      3 C3          -0.6710     0.0130     1.2330 ca         1 RO0       0.455600
      4 C4          -0.6910     0.0060    -1.2220 ca         1 RO0      -0.198000
      5 C5           2.0850     0.0000     1.2390 ca         1 RO0      -0.188600
      6 C6           2.1130    -0.0060    -1.2180 ca         1 RO0      -0.196000
      7 C7          -2.1770     0.0200     1.2720 c3         1 RO0      -0.077400
      8 N8           0.0160     0.0130     2.3520 nb         1 RO0      -0.699000
      9 C9           0.0100    -0.0000    -2.3920 ca         1 RO0       0.109100
     10 C10          1.3420     0.0070     2.3800 ca         1 RO0       0.414200
     11 C11          3.5900    -0.0070     1.3040 c3         1 RO0       0.184100
     12 C12          1.4140    -0.0070    -2.3910 ca         1 RO0       0.122100
     13 C13         -2.6730     1.4430     1.2810 ca         1 RO0      -0.079300
     14 O14         -0.6590    -0.0020    -3.5750 os         1 RO0      -0.279900
     15 N15          4.0880    -1.3500     0.9820 n3         1 RO0      -0.670600
     16 O16          2.0860    -0.0130    -3.5730 os         1 RO0      -0.280900
     17 C17         -2.8680     2.0990     2.4820 ca         1 RO0      -0.176000
     18 C18         -2.9310     2.0910     0.0870 ca         1 RO0      -0.126000
     19 C19         -2.0520     0.0060    -3.2610 c3         1 RO0       0.100700
     20 C20          5.5180    -1.2110     0.6850 c3         1 RO0       0.134800
     21 C21          3.9720    -2.1470     2.2070 c3         1 RO0       0.134800
     22 C22          3.4790    -0.0180    -3.2550 c3         1 RO0       0.099700
     23 C23         -3.3180     3.4090     2.4910 ca         1 RO0       0.096100
     24 C24         -3.3850     3.3960     0.0890 ca         1 RO0      -0.193000
     25 C25          6.1120    -2.5780     0.3440 c3         1 RO0      -0.070400
     26 C26          4.4820    -3.5670     1.9500 c3         1 RO0      -0.070400
     27 C27         -3.5830     4.0600     1.2900 ca         1 RO0       0.095100
     28 O28         -3.5100     4.0560     3.6720 os         1 RO0      -0.282900
     29 C29          5.9600    -3.5080     1.5520 c3         1 RO0      -0.022400
     30 O30         -4.0300     5.3440     1.2940 os         1 RO0      -0.281900
     31 C31         -3.1680     3.1330     4.7080 c3         1 RO0       0.101700
     32 C32          6.4400    -4.8910     1.1900 ca         1 RO0      -0.105300
     33 C33         -4.2000     5.7260    -0.0730 c3         1 RO0       0.103700
     34 C34          7.4920    -5.4640     1.8870 ca         1 RO0       0.120100
     35 C35          5.8360    -5.5830     0.1590 ca         1 RO0      -0.092000
     36 C36          7.9290    -6.7380     1.5540 ca         1 RO0      -0.221000
     37 O37          8.0890    -4.7840     2.9010 os         1 RO0      -0.299900
     38 C38          6.2760    -6.8510    -0.1750 ca         1 RO0      -0.162000
     39 C39          7.3220    -7.4280     0.5220 ca         1 RO0      -0.094000
     40 C40          9.1140    -5.6330     3.4210 c3         1 RO0       0.105700
     41 H4          -1.7740     0.0110    -1.2360 ha         1 RO0       0.156000
     42 H6           3.1960    -0.0110    -1.2290 ha         1 RO0       0.163000
     43 H71         -2.5630    -0.4910     0.3990 hc         1 RO0       0.063200
     44 H72         -2.5170    -0.4860     2.1670 hc         1 RO0       0.063200
     45 H10          1.8480     0.0080     3.3380 h4         1 RO0       0.017100
     46 H111         3.9860     0.7060     0.5900 h1         1 RO0       0.043200
     47 H112         3.9100     0.2670     2.3020 h1         1 RO0       0.043200
     48 H17         -2.6620     1.5910     3.4160 ha         1 RO0       0.157000
     49 H18         -2.7770     1.5740    -0.8530 ha         1 RO0       0.126000
     50 H191        -2.2830    -0.8360    -2.6190 h1         1 RO0       0.044367
     51 H192        -2.3030     0.9280    -2.7520 h1         1 RO0       0.044367
     52 H193        -2.6290    -0.0690    -4.1760 h1         1 RO0       0.044367
     53 H201         6.0260    -0.8050     1.5510 h1         1 RO0       0.037200
     54 H202         5.6460    -0.5440    -0.1590 h1         1 RO0       0.037200
     55 H211         4.5650    -1.6900     2.9900 h1         1 RO0       0.037200
     56 H212         2.9340    -2.1880     2.5120 h1         1 RO0       0.037200
     57 H221         4.0580     0.0360    -4.1690 h1         1 RO0       0.046700
     58 H222         3.7250    -0.9310    -2.7250 h1         1 RO0       0.046700
     59 H223         3.7100     0.8360    -2.6300 h1         1 RO0       0.046700
     60 H24         -3.5890     3.9000    -0.8480 ha         1 RO0       0.145000
     61 H251         7.1630    -2.4660     0.1060 hc         1 RO0       0.052700
     62 H252         5.5870    -2.9990    -0.5040 hc         1 RO0       0.052700
     63 H261         3.9090    -4.0160     1.1470 hc         1 RO0       0.052700
     64 H262         4.3740    -4.1580     2.8520 hc         1 RO0       0.052700
     65 H29          6.5410    -3.1220     2.3800 hc         1 RO0       0.069700
     66 H311        -3.3040     3.6070     5.6730 h1         1 RO0       0.044367
     67 H312        -3.8070     2.2610     4.6410 h1         1 RO0       0.044367
     68 H313        -2.1330     2.8320     4.5960 h1         1 RO0       0.044367
     69 H331        -3.2520     5.6500    -0.5900 h1         1 RO0       0.042367
     70 H332        -4.9220     5.0700    -0.5440 h1         1 RO0       0.042367
     71 H333        -4.5570     6.7480    -0.1200 h1         1 RO0       0.042367
     72 H35          5.0170    -5.1330    -0.3880 ha         1 RO0       0.140000
     73 H36          8.7500    -7.1900     2.0980 ha         1 RO0       0.141000
     74 H38          5.8010    -7.3930    -0.9830 ha         1 RO0       0.131000
     75 H39          7.6630    -8.4220     0.2600 ha         1 RO0       0.130000
     76 H401         8.6730    -6.5540     3.7810 h1         1 RO0       0.043700
     77 H402         9.6180    -5.1310     4.2380 h1         1 RO0       0.043700
     78 H403         9.8290    -5.8570     2.6390 h1         1 RO0       0.043700
@<TRIPOS>BOND
     1     1     2 ar
     2     1     3 ar
     3     1     4 ar
     4     2     5 ar
     5     2     6 ar
     6     3     7 1
     7     3     8 ar
     8     4     9 ar
     9     4    41 1
    10     5    10 ar
    11     5    11 1
    12     6    12 ar
    13     6    42 1
    14     7    13 1
    15     7    43 1
    16     7    44 1
    17     8    10 ar
    18     9    12 ar
    19     9    14 1
    20    10    45 1
    21    11    15 1
    22    11    46 1
    23    11    47 1
    24    12    16 1
    25    13    17 ar
    26    13    18 ar
    27    14    19 1
    28    15    20 1
    29    15    21 1
    30    16    22 1
    31    17    23 ar
    32    17    48 1
    33    18    24 ar
    34    18    49 1
    35    19    50 1
    36    19    51 1
    37    19    52 1
    38    20    25 1
    39    20    53 1
    40    20    54 1
    41    21    26 1
    42    21    55 1
    43    21    56 1
    44    22    57 1
    45    22    58 1
    46    22    59 1
    47    23    27 ar
    48    23    28 1
    49    24    27 ar
    50    24    60 1
    51    25    29 1
    52    25    61 1
    53    25    62 1
    54    26    29 1
    55    26    63 1
    56    26    64 1
    57    27    30 1
    58    28    31 1
    59    29    32 1
    60    29    65 1
    61    30    33 1
    62    31    66 1
    63    31    67 1
    64    31    68 1
    65    32    34 ar
    66    32    35 ar
    67    33    69 1
    68    33    70 1
    69    33    71 1
    70    34    36 ar
    71    34    37 1
    72    35    38 ar
    73    35    72 1
    74    36    39 ar
    75    36    73 1
    76    37    40 1
    77    38    39 ar
    78    38    74 1
    79    39    75 1
    80    40    76 1
    81    40    77 1
    82    40    78 1
@<TRIPOS>SUBSTRUCTURE
     1 RO0         1 TEMP              0 ****  ****    0 ROOT
