@<TRIPOS>MOLECULE
RO2
   55    60     1     0     0
SMALL
bcc


@<TRIPOS>ATOM
      1 C1           0.0000     0.0000     0.0000 ca         1 RO2      -0.128000
      2 C3           1.3880     0.0000     0.0000 ca         1 RO2       0.124100
      3 O3           2.0660     0.0050    -1.1780 oh         1 RO2      -0.500100
      4 C4           2.0810     0.0000     1.1990 ca         1 RO2      -0.100000
      5 C2           1.3810    -0.0110     2.4050 ca         1 RO2      -0.086900
      6 C6          -0.0150    -0.0090     2.3950 ca         1 RO2      -0.115000
      7 C5          -0.6960    -0.0040     1.1950 ca         1 RO2      -0.079000
      8 C7           2.1150    -0.0160     3.6880 cc         1 RO2       0.269400
      9 N1           1.7580     0.6940     4.8020 na         1 RO2       0.281700
     10 C8           2.6950     0.4160     5.7780 ca         1 RO2      -0.285200
     11 C9           3.6120    -0.4810     5.1960 ca         1 RO2       0.074400
     12 N2           3.2040    -0.7030     3.9300 nd         1 RO2      -0.509100
     13 C10          4.6930    -0.9530     5.9520 ca         1 RO2      -0.039000
     14 C11          4.8560    -0.5450     7.2410 ca         1 RO2      -0.114000
     15 C12          3.9480     0.3480     7.8250 ca         1 RO2      -0.108900
     16 C13          2.8620     0.8220     7.0900 ca         1 RO2      -0.032000
     17 C14          4.1380     0.7820     9.2230 cc         1 RO2       0.283400
     18 N3           3.1750     0.9390    10.1030 nd         1 RO2      -0.585700
     19 C15          3.6920     1.3440    11.2800 ca         1 RO2       0.522300
     20 C16          5.0840     1.4420    11.1080 ca         1 RO2      -0.418500
     21 N4           5.3410     1.0820     9.7990 na         1 RO2       0.283700
     22 C17          5.8810     1.8440    12.1740 ca         1 RO2      -0.034000
     23 C18          5.2680     2.1360    13.3780 ca         1 RO2      -0.221300
     24 C19          3.8830     2.0190    13.4870 ca         1 RO2       0.472200
     25 N7           3.1460     1.6310    12.4620 nb         1 RO2      -0.559000
     26 N5           3.2670     2.3110    14.7000 nh         1 RO2      -0.474300
     27 C21          1.8280     2.0980    14.5040 c3         1 RO2       0.131300
     28 C22          1.0700     2.5190    15.7630 c3         1 RO2       0.136800
     29 N6           1.2600     3.9540    15.9970 n3         1 RO2      -0.526600
     30 C23          2.6980     4.1680    16.1920 c3         1 RO2       0.136800
     31 C24          3.4570     3.7480    14.9330 c3         1 RO2       0.131300
     32 C25          0.6080     4.2640    17.2770 c3         1 RO2       0.174100
     33 H1          -0.5400     0.0040    -0.9390 ha         1 RO2       0.115000
     34 HO3          2.2640    -0.8820    -1.4300 ho         1 RO2       0.406000
     35 H4           3.1640    -0.0000     1.2000 ha         1 RO2       0.131000
     36 H6          -0.5630    -0.0150     3.3290 ha         1 RO2       0.104000
     37 H5          -1.7790    -0.0030     1.1890 ha         1 RO2       0.106000
     38 HN1          1.0560     1.4060     4.8460 hn         1 RO2       0.132700
     39 H10          5.4010    -1.6440     5.5100 ha         1 RO2       0.113000
     40 H11          5.6980    -0.9090     7.8180 ha         1 RO2       0.103000
     41 H13          2.1590     1.5120     7.5410 ha         1 RO2       0.120000
     42 HN4          6.2120     1.1940     9.3180 hn         1 RO2       0.130700
     43 H17          6.9550     1.9270    12.0640 ha         1 RO2       0.104000
     44 H18          5.8580     2.4560    14.2290 ha         1 RO2       0.125000
     45 H211         1.6440     1.0490    14.3080 h1         1 RO2       0.032450
     46 H212         1.4880     2.6920    13.6640 h1         1 RO2       0.032450
     47 H221         1.4480     1.9630    16.6120 h1         1 RO2       0.017200
     48 H222         0.0150     2.3130    15.6320 h1         1 RO2       0.017200
     49 H231         2.8820     5.2170    16.3890 h1         1 RO2       0.017200
     50 H232         3.0390     3.5730    17.0320 h1         1 RO2       0.017200
     51 H241         4.5120     3.9540    15.0640 h1         1 RO2       0.032450
     52 H242         3.0780     4.3030    14.0840 h1         1 RO2       0.032450
     53 H253         0.7680     5.3070    17.5210 h1         1 RO2       0.002367
     54 H252         1.0310     3.6420    18.0570 h1         1 RO2       0.002367
     55 H251        -0.4550     4.0700    17.1980 h1         1 RO2       0.002367
@<TRIPOS>BOND
     1     1     2 ar  
     2     1     7 ar  
     3     1    33 1   
     4     2     3 1   
     5     2     4 ar  
     6     3    34 1   
     7     4     5 ar  
     8     4    35 1   
     9     5     6 ar  
    10     5     8 1   
    11     6     7 ar  
    12     6    36 1   
    13     7    37 1   
    14     8     9 1   
    15     8    12 2   
    16     9    10 1   
    17     9    38 1   
    18    10    11 ar  
    19    10    16 ar  
    20    11    12 1   
    21    11    13 ar  
    22    13    14 ar  
    23    13    39 1   
    24    14    15 ar  
    25    14    40 1   
    26    15    16 ar  
    27    15    17 1   
    28    16    41 1   
    29    17    18 2   
    30    17    21 1   
    31    18    19 1   
    32    19    20 ar  
    33    19    25 ar  
    34    20    21 1   
    35    20    22 ar  
    36    21    42 1   
    37    22    23 ar  
    38    22    43 1   
    39    23    24 ar  
    40    23    44 1   
    41    24    25 ar  
    42    24    26 1   
    43    26    27 1   
    44    26    31 1   
    45    27    28 1   
    46    27    45 1   
    47    27    46 1   
    48    28    29 1   
    49    28    47 1   
    50    28    48 1   
    51    29    30 1   
    52    29    32 1   
    53    30    31 1   
    54    30    49 1   
    55    30    50 1   
    56    31    51 1   
    57    31    52 1   
    58    32    53 1   
    59    32    54 1   
    60    32    55 1   
@<TRIPOS>SUBSTRUCTURE
     1 RO2         1 TEMP              0 ****  ****    0 ROOT
