@<TRIPOS>MOLECULE
RO3
   30    31     1     0     0
SMALL
bcc


@<TRIPOS>ATOM
      1 C5           0.0000     0.0000     0.0000 ca         1 RO3      -0.142000
      2 C6           1.3820     0.0000     0.0000 ca         1 RO3       0.020000
      3 C9          -2.1990     0.0000     1.1970 c3         1 RO3       0.056200
      4 C10         -0.6910     0.0000     1.1970 ca         1 RO3      -0.034300
      5 C1           4.0560     2.3700     2.2550 c          1 RO3       0.771500
      6 O1           3.4490     1.9210     3.2110 o          1 RO3      -0.673100
      7 N1           4.4520     3.6470     2.2550 ne         1 RO3      -0.703100
      8 C4           4.1850     4.4270     3.2990 cd         1 RO3       0.537100
      9 O3           4.2370    -0.5460    -0.0520 o          1 RO3      -0.574800
     10 C15          4.1400     6.3340     4.6130 cc         1 RO3      -0.125000
     11 C14          3.4760     5.5860     5.4860 cd         1 RO3       0.002300
     12 C12          1.3820     0.0000     2.3950 ca         1 RO3       0.020000
     13 O2           4.2360    -0.5450     2.4470 o          1 RO3      -0.574800
     14 Br2          2.8120     6.1170     7.1750 br         1 RO3       0.016300
     15 S16          3.3460     3.9860     4.7370 ss         1 RO3      -0.107800
     16 N17          4.5210     5.7290     3.4530 na         1 RO3      -0.154000
     17 N5           4.3270     1.5800     1.1970 ns         1 RO3      -0.271300
     18 S2           3.8360    -0.0010     1.1980 sy         1 RO3       1.047900
     19 C11          2.0730     0.0000     1.1970 ca         1 RO3      -0.168500
     20 C8          -0.0000    -0.0010     2.3940 ca         1 RO3      -0.142000
     21 H5          -0.5420     0.0000    -0.9380 ha         1 RO3       0.111500
     22 H6           1.9240     0.0000    -0.9380 ha         1 RO3       0.131500
     23 H91C        -2.5590     0.7310     0.4840 hc         1 RO3       0.010033
     24 H92C        -2.5600    -0.9830     0.9210 hc         1 RO3       0.010033
     25 H93C        -2.5600     0.2530     2.1870 hc         1 RO3       0.010033
     26 H8          -0.5420    -0.0010     3.3320 ha         1 RO3       0.111500
     27 HA           4.8540     1.9400     0.4260 hn         1 RO3       0.234500
     28 H17          5.0240     6.2260     2.7450 hn         1 RO3       0.293800
     29 H15          4.6390     7.2370     4.9420 h4         1 RO3       0.154000
     30 H12          1.9240    -0.0000     3.3330 ha         1 RO3       0.131500
@<TRIPOS>BOND
     1     1     2 ar  
     2     1     4 ar  
     3     1    21 1   
     4     2    19 ar  
     5     2    22 1   
     6     3     4 1   
     7     3    23 1   
     8     3    24 1   
     9     3    25 1   
    10     4    20 ar  
    11     5     6 2   
    12     5     7 1   
    13     5    17 1   
    14     7     8 2   
    15     8    15 1   
    16     8    16 1   
    17     9    18 2   
    18    10    11 2   
    19    10    16 1   
    20    10    29 1   
    21    11    14 1   
    22    11    15 1   
    23    12    19 ar  
    24    12    20 ar  
    25    12    30 1   
    26    13    18 2   
    27    16    28 1   
    28    17    18 1   
    29    17    27 1   
    30    18    19 1   
    31    20    26 1   
@<TRIPOS>SUBSTRUCTURE
     1 RO3         1 TEMP              0 ****  ****    0 ROOT
