@<TRIPOS>MOLECULE
molecule
   30    31     1     0     0
SMALL
bcc


@<TRIPOS>ATOM
      1 C5           0.0000     0.0000     0.0000 ca         1 RO3      -0.159000
      2 C6           1.3820     0.0000     0.0000 ca         1 RO3      -0.012500
      3 C9          -2.1990     0.0000     1.1970 c3         1 RO3      -0.056800
      4 C10         -0.6910     0.0000     1.1970 ca         1 RO3      -0.025300
      5 C1           4.0560     2.3700     2.2550 c          1 RO3       0.849500
      6 O1           3.4490     1.9210     3.2110 o          1 RO3      -0.657100
      7 N1           4.4520     3.6470     2.2550 ne         1 RO3      -0.790100
      8 C4           4.1850     4.4270     3.2990 cd         1 RO3       0.683100
      9 O3           4.2370    -0.5460    -0.0520 o          1 RO3      -0.619800
     10 C15          4.1400     6.3340     4.6130 cc         1 RO3       0.043000
     11 C14          3.4760     5.5860     5.4860 cd         1 RO3      -0.100700
     12 C12          1.3820     0.0000     2.3950 ca         1 RO3      -0.012500
     13 O2           4.2360    -0.5450     2.4470 o          1 RO3      -0.619800
     14 Br2          2.8120     6.1170     7.1750 br         1 RO3       0.014300
     15 S16          3.3460     3.9860     4.7370 ss         1 RO3       0.052200
     16 N17          4.5210     5.7290     3.4530 na         1 RO3      -0.657000
     17 N5           4.3270     1.5800     1.1970 ns         1 RO3      -0.630300
     18 S2           3.8360    -0.0010     1.1980 sy         1 RO3       1.427900
     19 C11          2.0730     0.0000     1.1970 ca         1 RO3      -0.320500
     20 C8          -0.0000    -0.0010     2.3940 ca         1 RO3      -0.159000
     21 H5          -0.5420    -0.0000    -0.9380 ha         1 RO3       0.136000
     22 H6           1.9240    -0.0000    -0.9380 ha         1 RO3       0.158000
     23 H91C        -2.5590     0.7310     0.4840 hc         1 RO3       0.048367
     24 H92C        -2.5600     0.2520     2.1870 hc         1 RO3       0.048367
     25 H93C        -2.5600    -0.9830     0.9200 hc         1 RO3       0.048367
     26 H8          -0.5420    -0.0010     3.3320 ha         1 RO3       0.136000
     27 HA           4.8530     1.9400     0.4260 hn         1 RO3       0.354500
     28 H17          5.0240     6.2260     2.7450 hn         1 RO3       0.472800
     29 H15          4.6390     7.2370     4.9420 h4         1 RO3       0.188000
     30 H12          1.9240    -0.0000     3.3330 ha         1 RO3       0.158000
@<TRIPOS>BOND
     1     1     2 ar
     2     1     4 ar
     3     2    19 ar
     4     3     4 1
     5     4    20 ar
     6     5     6 2
     7     5     7 1
     8     5    17 1
     9     7     8 2
    10     8    15 1
    11     8    16 1
    12     9    18 2
    13    10    11 2
    14    10    16 1
    15    11    14 1
    16    11    15 1
    17    12    19 ar
    18    12    20 ar
    19    13    18 2
    20    17    18 1
    21    18    19 1
    22     1    21 1
    23     2    22 1
    24     3    23 1
    25     3    24 1
    26     3    25 1
    27    20    26 1
    28    17    27 1
    29    16    28 1
    30    10    29 1
    31    12    30 1
@<TRIPOS>SUBSTRUCTURE
     1 RO3         1 TEMP              0 ****  ****    0 ROOT
