@<TRIPOS>MOLECULE
molecule
   63    62     1     0     0
SMALL
bcc


@<TRIPOS>ATOM
      1 O1           0.0000     0.0000     0.0000 o          1 RO4      -0.581100
      2 O3           2.9120    -0.2420     3.7870 o          1 RO4      -0.631100
      3 O4          -0.0180    -0.9020     7.0610 o          1 RO4      -0.613100
      4 O29          2.8840    -1.2730    10.5780 o          1 RO4      -0.555000
      5 O30          1.5360    -2.7810    11.4650 os         1 RO4      -0.436900
      6 O2           1.1780    -0.0040    -2.3940 oh         1 RO4      -0.364100
      7 N6           1.8860    -0.0030    -1.1680 ns         1 RO4      -0.473400
      8 N7           1.8880    -1.2010     8.1550 ns         1 RO4      -0.571900
      9 N5           1.0810     0.2790     4.9240 ns         1 RO4      -0.565900
     10 C8           1.2120     0.0000     0.0000 c          1 RO4       0.669100
     11 C11          1.7250     0.0040     3.7730 c          1 RO4       0.666100
     12 C13          1.1620    -0.6440     7.1650 c          1 RO4       0.654100
     13 C28          1.9510    -2.0260    10.4360 c          1 RO4       0.631100
     14 C10          0.9720     0.0040     2.4680 c3         1 RO4      -0.128700
     15 C12          1.8170     0.2990     6.1890 c3         1 RO4       0.037700
     16 C14          1.2520    -2.1160     9.1040 c3         1 RO4       0.073700
     17 C9           1.9660     0.0000     1.3050 c3         1 RO4      -0.131400
     18 C31          2.2090    -2.6940    12.7480 c3         1 RO4       0.153400
     19 C15          0.0920    -1.2450     2.3890 c3         1 RO4      -0.061400
     20 C19          1.8060     1.7160     6.7630 c3         1 RO4      -0.086400
     21 C32          1.5440    -3.6500    13.7390 c3         1 RO4      -0.096100
     22 C17         -2.2570    -2.0750     2.2040 c3         1 RO4      -0.093600
     23 C18         -1.7420    -0.0920     3.6330 c3         1 RO4      -0.093600
     24 C21          2.4250     4.0960     6.3210 c3         1 RO4      -0.094600
     25 C22          4.0180     2.2610     5.7370 c3         1 RO4      -0.094600
     26 C27          1.3490    -3.5480     8.5740 c3         1 RO4      -0.102100
     27 HO2          1.7840     0.1090    -3.1070 ho         1 RO4       0.398000
     28 HN6          2.8870    -0.0010    -1.1690 hn         1 RO4       0.320500
     29 HN7          2.8640    -0.9980     8.2340 hn         1 RO4       0.335500
     30 HN5          0.1060     0.5070     4.9090 hn         1 RO4       0.342500
     31 H10          0.3500     0.8890     2.4090 hc         1 RO4       0.083700
     32 H12          2.8400    -0.0130     6.0170 h1         1 RO4       0.104700
     33 H14          0.2100    -1.8460     9.2240 h1         1 RO4       0.108700
     34 H16         -1.5440    -0.1770     1.4940 hc         1 RO4       0.085700
     35 H20          2.1020     2.5910     4.8230 hc         1 RO4       0.052700
     36 H91          2.5870    -0.8860     1.3630 hc         1 RO4       0.076200
     37 H92          2.5910     0.8830     1.3610 hc         1 RO4       0.076200
     38 H311         3.2510    -2.9650    12.6280 h1         1 RO4       0.048200
     39 H312         2.1410    -1.6800    13.1230 h1         1 RO4       0.048200
     40 H151         0.3370    -1.8040     1.4940 hc         1 RO4       0.052200
     41 H152         0.2650    -1.8650     3.2600 hc         1 RO4       0.052200
     42 H191         2.2990     1.7190     7.7270 hc         1 RO4       0.056200
     43 H192         0.7820     2.0500     6.8800 hc         1 RO4       0.056200
     44 H321         2.0210    -3.5560    14.7070 hc         1 RO4       0.049033
     45 H322         1.6480    -4.6680    13.3840 hc         1 RO4       0.049033
     46 H323         0.4930    -3.4040    13.8290 hc         1 RO4       0.049033
     47 H171        -1.9690    -2.6230     1.3150 hc         1 RO4       0.034533
     48 H172        -2.1350    -2.7100     3.0740 hc         1 RO4       0.034533
     49 H173        -3.2940    -1.7720     2.1220 hc         1 RO4       0.034533
     50 H181        -1.3930    -0.6620     4.4850 hc         1 RO4       0.034533
     51 H182        -2.8130     0.0530     3.7100 hc         1 RO4       0.034533
     52 H183        -1.2480     0.8720     3.6160 hc         1 RO4       0.034533
     53 H211         1.3790     4.3560     6.4290 hc         1 RO4       0.038200
     54 H212         2.9160     4.1660     7.2840 hc         1 RO4       0.038200
     55 H213         2.8970     4.7780     5.6250 hc         1 RO4       0.038200
     56 H221         4.3780     2.0270     6.7320 hc         1 RO4       0.038200
     57 H222         4.6160     3.0600     5.3150 hc         1 RO4       0.038200
     58 H223         4.0940     1.3820     5.1090 hc         1 RO4       0.038200
     59 H271         1.0790    -3.5640     7.5250 hc         1 RO4       0.052700
     60 H272         2.3630    -3.9090     8.6910 hc         1 RO4       0.052700
     61 H273         0.6720    -4.1860     9.1300 hc         1 RO4       0.052700
     62 C16         -1.3800    -0.8300     2.3430 c3         1 RO4      -0.078700
     63 C20          2.5420     2.6590     5.8100 c3         1 RO4      -0.073700
@<TRIPOS>BOND
     1     1    10 2
     2     2    11 2
     3     3    12 2
     4     4    13 2
     5     5    13 1
     6     5    18 1
     7     6     7 1
     8     6    27 1
     9     7    10 1
    10     7    28 1
    11     8    12 1
    12     8    16 1
    13     8    29 1
    14     9    11 1
    15     9    15 1
    16     9    30 1
    17    10    17 1
    18    11    14 1
    19    12    15 1
    20    13    16 1
    21    14    17 1
    22    14    19 1
    23    14    31 1
    24    15    20 1
    25    15    32 1
    26    16    26 1
    27    16    33 1
    28    62    19 1
    29    62    22 1
    30    62    23 1
    31    62    34 1
    32    63    20 1
    33    63    24 1
    34    63    25 1
    35    63    35 1
    36    17    36 1
    37    17    37 1
    38    18    21 1
    39    18    38 1
    40    18    39 1
    41    19    40 1
    42    19    41 1
    43    20    42 1
    44    20    43 1
    45    21    44 1
    46    21    45 1
    47    21    46 1
    48    22    47 1
    49    22    48 1
    50    22    49 1
    51    23    50 1
    52    23    51 1
    53    23    52 1
    54    24    53 1
    55    24    54 1
    56    24    55 1
    57    25    56 1
    58    25    57 1
    59    25    58 1
    60    26    59 1
    61    26    60 1
    62    26    61 1
@<TRIPOS>SUBSTRUCTURE
     1 RO4         1 TEMP              0 ****  ****    0 ROOT
