@<TRIPOS>MOLECULE
molecule
   33    34     1     0     0
SMALL
bcc


@<TRIPOS>ATOM
      1 C5           0.0000     0.0000     0.0000 ca         1 RO5      -0.155000
      2 C6           1.3830     0.0000     0.0000 ca         1 RO5      -0.038000
      3 C10         -0.6910     0.0010     1.1970 ca         1 RO5      -0.068000
      4 C1           4.0560     2.3700     2.2530 c          1 RO5       0.789100
      5 O1           3.4510     1.9230     3.2080 o          1 RO5      -0.552100
      6 N1           4.4570     3.6560     2.2510 ns         1 RO5      -0.533400
      7 C4           4.1790     4.4730     3.3420 cc         1 RO5       0.586300
      8 O3           4.2370    -0.5490    -0.0510 o          1 RO5      -0.613300
      9 C15          3.3580     5.0080     5.3460 cd         1 RO5       0.436200
     10 C14          3.8730     6.2070     5.0640 cc         1 RO5      -0.115300
     11 C12          1.3820     0.0020     2.3940 ca         1 RO5       0.001000
     12 O2           4.2360    -0.5460     2.4480 o          1 RO5      -0.613300
     13 Br2          3.8070     7.7340     6.1770 br         1 RO5      -0.022100
     14 S16          4.6250     6.1180     3.4720 ss         1 RO5      -0.181300
     15 N17          3.5360     4.1000     4.4030 nd         1 RO5      -0.680000
     16 N5           4.3280     1.5790     1.1960 ns         1 RO5      -0.662300
     17 C11          2.0740     0.0000     1.1980 ca         1 RO5      -0.314500
     18 C8          -0.0000     0.0030     2.3940 ca         1 RO5      -0.104300
     19 C20         -0.7540     0.0040     3.6990 c3         1 RO5      -0.039100
     20 C21         -1.0110    -1.4370     4.1420 c3         1 RO5      -0.089100
     21 H5          -0.5420    -0.0010    -0.9380 ha         1 RO5       0.135000
     22 H6           1.9250    -0.0010    -0.9380 ha         1 RO5       0.144000
     23 H10         -1.7740     0.0020     1.1970 ha         1 RO5       0.134000
     24 H1           4.9370     4.0300     1.4560 hn         1 RO5       0.335500
     25 HA           4.8580     1.9370     0.4260 hn         1 RO5       0.338500
     26 H15          2.8350     4.7970     6.2710 h4         1 RO5       0.061100
     27 H12          1.9230     0.0020     3.3330 ha         1 RO5       0.174000
     28 H201        -0.1680     0.5150     4.4530 hc         1 RO5       0.052700
     29 H202        -1.7000     0.5160     3.5680 hc         1 RO5       0.052700
     30 H211        -1.7050    -1.9080     3.4570 hc         1 RO5       0.038033
     31 H212        -0.0770    -1.9860     4.1450 hc         1 RO5       0.038033
     32 H213        -1.4330    -1.4380     5.1400 hc         1 RO5       0.038033
     33 S2           3.8360    -0.0020     1.1980 sy         1 RO5       1.426900
@<TRIPOS>BOND
     1     1     2 ar
     2     1     3 ar
     3     2    17 ar
     4     3    18 ar
     5     4     5 2
     6     4     6 1
     7     4    16 1
     8     6     7 1
     9     7    14 1
    10     7    15 2
    11     8    33 2
    12     9    10 2
    13     9    15 1
    14    10    13 1
    15    10    14 1
    16    11    17 ar
    17    11    18 ar
    18    12    33 2
    19    16    33 1
    20    33    17 1
    21    18    19 1
    22    19    20 1
    23     1    21 1
    24     2    22 1
    25     3    23 1
    26     6    24 1
    27    16    25 1
    28     9    26 1
    29    11    27 1
    30    19    28 1
    31    19    29 1
    32    20    30 1
    33    20    31 1
    34    20    32 1
@<TRIPOS>SUBSTRUCTURE
     1 RO5         1 TEMP              0 ****  ****    0 ROOT
