@<TRIPOS>MOLECULE
RO6
   46    49     1     0     0
SMALL
bcc


@<TRIPOS>ATOM
      1 C1           0.0000     0.0000     0.0000 ca         1 RO6       0.755900
      2 N11          1.3250     0.0000     0.0000 nb         1 RO6      -0.736000
      3 C12          1.9950     0.0000     1.1460 ca         1 RO6       0.454200
      4 N15          3.3780    -0.0010     1.1760 ns         1 RO6      -0.082400
      5 C16          4.0840    -0.0010     2.3150 c          1 RO6       0.606500
      6 O19          5.2970    -0.0020     2.2440 o          1 RO6      -0.711500
      7 N17          3.5150    -0.0000     3.5350 n          1 RO6      -0.032000
      8 C20          4.3080     0.0000     4.6880 ca         1 RO6      -0.054400
      9 C21          4.6990     1.2020     5.2640 ca         1 RO6      -0.072000
     10 C22          5.4810     1.1980     6.4020 ca         1 RO6      -0.097000
     11 C23          5.8770     0.0010     6.9680 ca         1 RO6      -0.078000
     12 C24          5.4900    -1.1990     6.3980 ca         1 RO6      -0.096000
     13 C25          4.7030    -1.2030     5.2620 ca         1 RO6      -0.019600
     14 Cl26         4.2110    -2.7080     4.5510 cl         1 RO6      -0.014400
     15 C18          2.0440     0.0020     3.6390 c3         1 RO6       0.132300
     16 C14          1.2740     0.0010     2.3410 ca         1 RO6      -0.469900
     17 N10         -0.7040     0.0060     1.1230 nb         1 RO6      -0.730000
     18 C13         -0.0980     0.0020     2.3050 ca         1 RO6       0.539200
     19 N2          -0.6700     0.0000    -1.2100 nu         1 RO6      -0.471900
     20 C3          -2.1350     0.0010    -1.2370 c3         1 RO6       0.129500
     21 C4          -2.6470    -1.4360    -1.1200 c3         1 RO6      -0.035400
     22 C5          -4.1770    -1.4360    -1.1480 c3         1 RO6      -0.037900
     23 C6          -4.6620    -0.8260    -2.4650 c3         1 RO6       0.188100
     24 O9          -6.0920    -0.8250    -2.4910 oh         1 RO6      -0.584800
     25 C7          -4.1500     0.6110    -2.5820 c3         1 RO6      -0.037900
     26 C8          -2.6200     0.6100    -2.5540 c3         1 RO6      -0.035400
     27 HN15         3.8750    -0.0010     0.3070 hn         1 RO6       0.195500
     28 H21          4.3890     2.1410     4.8220 ha         1 RO6       0.112000
     29 H22          5.7860     2.1350     6.8510 ha         1 RO6       0.107000
     30 H23          6.4930     0.0020     7.8590 ha         1 RO6       0.106000
     31 H24          5.8010    -2.1350     6.8450 ha         1 RO6       0.117000
     32 H18          1.7510     0.8820     4.1990 h1         1 RO6       0.016700
     33 H18A         1.7490    -0.8760     4.2020 h1         1 RO6       0.016700
     34 H13         -0.6750     0.0070     3.2220 h4         1 RO6      -0.016900
     35 HN2         -0.1540     0.0130    -2.0670 hn         1 RO6       0.300800
     36 H3          -2.5150     0.5860    -0.4090 h1         1 RO6       0.062700
     37 H4          -2.3050    -1.8660    -0.1870 hc         1 RO6       0.020700
     38 H4A         -2.2720    -2.0210    -1.9520 hc         1 RO6       0.020700
     39 H5          -4.5390    -2.4540    -1.0680 hc         1 RO6       0.025700
     40 H5A         -4.5520    -0.8470    -0.3190 hc         1 RO6       0.025700
     41 H6          -4.2820    -1.4110    -3.2940 h1         1 RO6      -0.002300
     42 HO9         -6.3930    -1.3350    -3.2250 ho         1 RO6       0.388000
     43 H7          -4.4930     1.0400    -3.5150 hc         1 RO6       0.025700
     44 H7A         -4.5250     1.1950    -1.7500 hc         1 RO6       0.025700
     45 H8          -2.2590     1.6280    -2.6340 hc         1 RO6       0.020700
     46 H8A         -2.2450     0.0220    -3.3820 hc         1 RO6       0.020700
@<TRIPOS>BOND
     1     1     2 ar  
     2     1    17 ar  
     3     1    19 1   
     4     2     3 ar  
     5     3     4 1   
     6     3    16 ar  
     7     4     5 1   
     8     4    27 1   
     9     5     6 2   
    10     5     7 1   
    11     7     8 1   
    12     7    15 1   
    13     8     9 ar  
    14     8    13 ar  
    15     9    10 ar  
    16     9    28 1   
    17    10    11 ar  
    18    10    29 1   
    19    11    12 ar  
    20    11    30 1   
    21    12    13 ar  
    22    12    31 1   
    23    13    14 1   
    24    15    16 1   
    25    15    32 1   
    26    15    33 1   
    27    16    18 ar  
    28    17    18 ar  
    29    18    34 1   
    30    19    20 1   
    31    19    35 1   
    32    20    21 1   
    33    20    26 1   
    34    20    36 1   
    35    21    22 1   
    36    21    37 1   
    37    21    38 1   
    38    22    23 1   
    39    22    39 1   
    40    22    40 1   
    41    23    24 1   
    42    23    25 1   
    43    23    41 1   
    44    24    42 1   
    45    25    26 1   
    46    25    43 1   
    47    25    44 1   
    48    26    45 1   
    49    26    46 1   
@<TRIPOS>SUBSTRUCTURE
     1 RO6         1 TEMP              0 ****  ****    0 ROOT
