@<TRIPOS>MOLECULE
RO7
   53    56     1     0     0
SMALL
bcc


@<TRIPOS>ATOM
      1 C25         0.7690    1.4530   -0.6630 c3        1 RO7     -0.134400
      2 C7          2.1070    0.8780   -0.5360 cc        1 RO7      0.175700
      3 O3          2.6200    0.7290    0.7560 os        1 RO7     -0.382800
      4 C2          3.9060    0.1710    0.5810 cc        1 RO7      0.531900
      5 C16         4.6780   -0.0910    1.7820 ca        1 RO7     -0.122500
      6 C26         4.1540    0.2270    3.0440 ca        1 RO7     -0.094500
      7 C29         4.9020   -0.0270    4.1910 ca        1 RO7     -0.140000
      8 C31         6.1710   -0.5970    4.0890 ca        1 RO7     -0.119000
      9 C30         6.6940   -0.9130    2.8360 ca        1 RO7     -0.140000
     10 C27         5.9550   -0.6630    1.6810 ca        1 RO7     -0.094500
     11 N1          4.1960   -0.0230   -0.7100 nd        1 RO7     -0.654000
     12 C4          3.0730    0.4170   -1.4340 cd        1 RO7      0.239300
     13 C20         2.9700    0.3570   -2.9080 c3        1 RO7     -0.111700
     14 C23         2.7840    1.7530   -3.4930 c3        1 RO7      0.129400
     15 O22         2.4460    1.5600   -4.8710 os        1 RO7     -0.341900
     16 C13         1.7280    2.6020   -5.4390 ca        1 RO7      0.123100
     17 C19         1.7990    3.9240   -5.0050 ca        1 RO7     -0.197000
     18 C17         1.0550    4.9190   -5.6530 ca        1 RO7     -0.084000
     19 C5          0.9200    2.2710   -6.5440 ca        1 RO7     -0.113800
     20 C15         0.7140    0.9890   -7.1700 cc        1 RO7     -0.110200
     21 C12        -0.1450    1.0770   -8.2280 cd        1 RO7     -0.184400
     22 C6          0.1760    3.2960   -7.1910 ca        1 RO7     -0.043100
     23 S9         -0.7090    2.6480   -8.4840 ss        1 RO7      0.003500
     24 C8          0.2340    4.6230   -6.7410 ca        1 RO7     -0.041300
     25 C11        -0.5370    5.7040   -7.4100 c3        1 RO7     -0.036100
     26 C14        -1.6670    6.2360   -6.5270 c3        1 RO7      0.027100
     27 O24        -2.6470    6.7300   -7.4550 os        1 RO7     -0.438600
     28 C28        -3.8820    7.0540   -6.8450 c3        1 RO7      0.117700
     29 C10        -1.1960    7.3420   -5.5420 c         1 RO7      0.898600
     30 O21        -0.0300    7.8130   -5.6620 o         1 RO7     -0.837300
     31 O18        -2.0060    7.6890   -4.6360 o         1 RO7     -0.837300
     32 H25         0.8350    2.5700   -0.7280 hc        1 RO7      0.067700
     33 H25A        0.2830    1.0700   -1.5950 hc        1 RO7      0.067700
     34 H25B        0.1370    1.1880    0.2210 hc        1 RO7      0.067700
     35 H26         3.1520    0.6790    3.1200 ha        1 RO7      0.153000
     36 H29         4.4890    0.2250    5.1780 ha        1 RO7      0.133000
     37 H31         6.7600   -0.7950    4.9970 ha        1 RO7      0.129000
     38 H30         7.6960   -1.3610    2.7540 ha        1 RO7      0.133000
     39 H27         6.3720   -0.9130    0.6930 ha        1 RO7      0.153000
     40 H20         3.8810   -0.1170   -3.3600 hc        1 RO7      0.071200
     41 H20A        2.0870   -0.2790   -3.1880 hc        1 RO7      0.071200
     42 H23         3.7350    2.3450   -3.4390 h1        1 RO7      0.046700
     43 H23A        1.9670    2.3010   -2.9530 h1        1 RO7      0.046700
     44 H19         2.4360    4.2010   -4.1540 ha        1 RO7      0.131000
     45 H17         1.0930    5.9730   -5.3010 ha        1 RO7      0.206000
     46 H15         1.2100    0.0860   -6.8090 ha        1 RO7      0.149000
     47 H12        -0.4610    0.2520   -8.8630 h4        1 RO7      0.154000
     48 H11         0.1510    6.5650   -7.6370 hc        1 RO7      0.063700
     49 H11A       -0.9670    5.3300   -8.3780 hc        1 RO7      0.063700
     50 H14        -2.1290    5.4020   -5.9300 h1        1 RO7      0.023700
     51 H28        -4.4060    6.1180   -6.5230 h1        1 RO7      0.027700
     52 H28A       -3.7370    7.7300   -5.9650 h1        1 RO7      0.027700
     53 H28B       -4.4690    7.5630   -7.6510 h1        1 RO7      0.027700
@<TRIPOS>BOND
     1    1    2 1
     2    1   32 1
     3    1   33 1
     4    1   34 1
     5    2    3 1
     6    2   12 2
     7    3    4 1
     8    4    5 1
     9    4   11 2
    10    5    6 ar
    11    5   10 ar
    12    6    7 ar
    13    6   35 1
    14    7    8 ar
    15    7   36 1
    16    8    9 ar
    17    8   37 1
    18    9   10 ar
    19    9   38 1
    20   10   39 1
    21   11   12 1
    22   12   13 1
    23   13   14 1
    24   13   40 1
    25   13   41 1
    26   14   15 1
    27   14   42 1
    28   14   43 1
    29   15   16 1
    30   16   17 ar
    31   16   19 ar
    32   17   18 ar
    33   17   44 1
    34   18   24 ar
    35   18   45 1
    36   19   20 1
    37   19   22 ar
    38   20   21 2
    39   20   46 1
    40   21   23 1
    41   21   47 1
    42   22   23 1
    43   22   24 ar
    44   24   25 1
    45   25   26 1
    46   25   48 1
    47   25   49 1
    48   26   27 1
    49   26   29 1
    50   26   50 1
    51   27   28 1
    52   28   51 1
    53   28   52 1
    54   28   53 1
    55   29   30 1
    56   29   31 1
@<TRIPOS>SUBSTRUCTURE
     1 RO7         1 TEMP              0 ****  ****    0 ROOT
