@<TRIPOS>MOLECULE
molecule
   27    28     1     0     0
SMALL
bcc


@<TRIPOS>ATOM
      1 Cl           0.0000     0.0000     0.0000 cl         1 RO8      -0.104400
      2 S1           7.3220    -3.9840    -1.7560 ss         1 RO8       0.054200
      3 C2           6.9680    -4.4290    -0.1310 cc         1 RO8       0.682100
      4 N3           7.3140    -5.7320    -0.0210 na         1 RO8      -0.655000
      5 C4           7.8180    -6.3340    -1.1330 cc         1 RO8       0.043000
      6 C5           7.9250    -5.5830    -2.2230 cd         1 RO8      -0.100700
      7 Br6          8.5800    -6.1110    -3.9160 br         1 RO8       0.016300
      8 N7           6.4600    -3.6490     0.8220 nf         1 RO8      -0.790100
      9 N9           5.6540    -1.5840     1.5200 ns         1 RO8      -0.629300
     10 C10          6.1680    -2.3730     0.5560 c          1 RO8       0.848500
     11 O11          6.3680    -1.9210    -0.5590 o          1 RO8      -0.661100
     12 O12          4.7430     0.5410     2.3840 o          1 RO8      -0.613800
     13 O13          6.4340     0.5430     0.5410 o          1 RO8      -0.613800
     14 C14          3.9940     0.0000     0.0000 ca         1 RO8      -0.306500
     15 C15          2.6760     0.0000     0.4150 ca         1 RO8      -0.024000
     16 C16          4.2940     0.0080    -1.3500 ca         1 RO8      -0.003000
     17 C17          1.6570     0.0010    -0.5210 ca         1 RO8      -0.001600
     18 C18          3.2770     0.0090    -2.2850 ca         1 RO8      -0.148000
     19 C19          1.9580     0.0030    -1.8710 ca         1 RO8      -0.067000
     20 HN3          7.2030    -6.2320     0.8390 hn         1 RO8       0.473800
     21 H4           8.4060    -7.2390    -1.0390 h4         1 RO8       0.189000
     22 HN9          5.5160    -1.9470     2.4420 hn         1 RO8       0.356500
     23 H15          2.4410     0.0330     1.4720 ha         1 RO8       0.161000
     24 H16          5.3280     0.0130    -1.6750 ha         1 RO8       0.175000
     25 H18          3.5120     0.0130    -3.3420 ha         1 RO8       0.144000
     26 H19          1.1600     0.0040    -2.6040 ha         1 RO8       0.146000
     27 S8           5.2930    -0.0020     1.1900 sy         1 RO8       1.426900
@<TRIPOS>BOND
     1     1    17 1
     2     2     3 1
     3     2     6 1
     4     3     4 1
     5     3     8 2
     6     4     5 1
     7     5     6 2
     8     6     7 1
     9     8    10 1
    10    27     9 1
    11    27    12 2
    12    27    13 2
    13    27    14 1
    14     9    10 1
    15    10    11 2
    16    14    15 ar
    17    14    16 ar
    18    15    17 ar
    19    16    18 ar
    20    17    19 ar
    21    18    19 ar
    22     4    20 1
    23     5    21 1
    24     9    22 1
    25    15    23 1
    26    16    24 1
    27    18    25 1
    28    19    26 1
@<TRIPOS>SUBSTRUCTURE
     1 RO8         1 TEMP              0 ****  ****    0 ROOT
