@<TRIPOS>MOLECULE
RO9
   43    46     1     0     0
SMALL
bcc


@<TRIPOS>ATOM
      1 C5           0.0000     0.0000     0.0000 ca         1 RO9       0.492200
      2 C6           1.3810     0.0000     0.0000 ca         1 RO9      -0.298300
      3 C10          3.3000     0.0120     3.7080 ca         1 RO9      -0.122000
      4 C15         -0.6430     0.8310     4.6100 ca         1 RO9      -0.141000
      5 C14         -1.4290     0.8240     5.7500 ca         1 RO9       0.146100
      6 C12          3.4570     0.0060     1.3150 ca         1 RO9      -0.113000
      7 N17         -0.6780    -0.0010    -1.2170 nu         1 RO9      -0.372600
      8 C11          4.0570     0.0130     2.5390 ca         1 RO9      -0.071000
      9 C8           1.2850     0.0000     2.4240 ca         1 RO9      -0.184300
     10 C21         -4.1920    -0.2370    -0.5600 cc         1 RO9      -0.247600
     11 C23         -5.4280    -0.2910     0.3010 c3         1 RO9       0.101200
     12 C22         -2.9190    -0.1140    -0.1190 cd         1 RO9      -0.358300
     13 N20         -4.1590    -0.3090    -1.9080 na         1 RO9       0.454400
     14 N19         -2.8200    -0.2270    -2.3130 nc         1 RO9      -0.722800
     15 C18         -2.0730    -0.1110    -1.2390 cd         1 RO9       0.463200
     16 N4          -0.6990    -0.0060     1.1310 nb         1 RO9      -0.602000
     17 C7           2.0570     0.0000     1.2330 ca         1 RO9       0.035000
     18 C9           1.9380     0.0010     3.6640 ca         1 RO9      -0.079000
     19 C3          -0.1240    -0.0060     2.3210 cp         1 RO9       0.495800
     20 C16         -0.9580    -0.0130     3.5460 cp         1 RO9      -0.112500
     21 C29         -2.0580    -0.8640     3.6380 ca         1 RO9      -0.115000
     22 C32         -2.8330    -0.8680     4.7800 ca         1 RO9      -0.061000
     23 C43         -2.5230    -0.0270     5.8330 ca         1 RO9      -0.203000
     24 C25         -1.9830     1.5880     7.9320 c3         1 RO9       0.244700
     25 H1           1.9230     0.2090    -0.9150 ha         1 RO9       0.123000
     26 H2           3.8020     0.0170     4.6680 ha         1 RO9       0.103000
     27 H3           0.2110     1.4940     4.5430 ha         1 RO9       0.133000
     28 H4           4.0570     0.0070     0.4130 ha         1 RO9       0.109000
     29 H5          -0.1710     0.1200    -2.0720 hn         1 RO9       0.288800
     30 H6           5.1390     0.0220     2.6030 ha         1 RO9       0.100000
     31 H7          -5.3330     0.4180     1.1140 hc         1 RO9       0.008367
     32 H8          -6.2960    -0.0390    -0.2970 hc         1 RO9       0.008367
     33 H9          -5.5450    -1.2900     0.7030 hc         1 RO9       0.008367
     34 H10         -2.6140     0.0330     0.9100 ha         1 RO9       0.191000
     35 H11         -4.9510    -0.4030    -2.5120 hn         1 RO9       0.142700
     36 H12          1.3630     0.0010     4.5820 ha         1 RO9       0.130000
     37 H13         -2.3040    -1.5230     2.8140 ha         1 RO9       0.121000
     38 H14         -3.6880    -1.5290     4.8510 ha         1 RO9       0.102000
     39 H15         -3.1360    -0.0330     6.7260 ha         1 RO9       0.119000
     40 H16         -1.9630     0.5860     8.3440 h1         1 RO9      -0.002300
     41 H17         -3.0050     1.8620     7.6990 h1         1 RO9      -0.002300
     42 H18         -1.5780     2.2850     8.6550 h1         1 RO9      -0.002300
     43 O24         -1.1290     1.6490     6.7880 os         1 RO9      -0.306900
@<TRIPOS>BOND
     1     1     2 ar  
     2     1     7 1   
     3     1    16 ar  
     4     2    17 ar  
     5     2    25 1   
     6     3     8 ar  
     7     3    18 ar  
     8     3    26 1   
     9     4     5 ar  
    10     4    20 ar  
    11     4    27 1   
    12     5    23 ar  
    13     5    43 1   
    14     6     8 ar  
    15     6    17 ar  
    16     6    28 1   
    17     7    15 1   
    18     7    29 1   
    19     8    30 1   
    20     9    17 ar  
    21     9    18 ar  
    22     9    19 ar  
    23    10    11 1   
    24    10    12 2   
    25    10    13 1   
    26    11    31 1   
    27    11    32 1   
    28    11    33 1   
    29    12    15 1   
    30    12    34 1   
    31    13    14 1   
    32    13    35 1   
    33    14    15 2   
    34    16    19 ar  
    35    18    36 1   
    36    19    20 1   
    37    20    21 ar  
    38    21    22 ar  
    39    21    37 1   
    40    22    23 ar  
    41    22    38 1   
    42    23    39 1   
    43    24    40 1   
    44    24    41 1   
    45    24    42 1   
    46    24    43 1   
@<TRIPOS>SUBSTRUCTURE
     1 RO9         1 TEMP              0 ****  ****    0 ROOT
