@<TRIPOS>MOLECULE
molecule
   41    42     1     0     0
SMALL
bcc


@<TRIPOS>ATOM
      1 CAU          0.0000     0.0000     0.0000 ca         1 ROA      -0.149000
      2 CAV          1.3850     0.0000     0.0000 ca         1 ROA       0.082100
      3 OAY          2.0660     0.0000    -1.1770 oh         1 ROA      -0.518100
      4 CAW          2.0790     0.0000     1.2070 ca         1 ROA       0.064100
      5 OAZ          3.4380     0.0000     1.2110 oh         1 ROA      -0.522100
      6 CAX          1.3810    -0.0010     2.4030 ca         1 ROA      -0.162000
      7 CAT         -0.0020    -0.0000     2.3970 ca         1 ROA      -0.117000
      8 CAS         -0.6910    -0.0000     1.1980 ca         1 ROA      -0.057300
      9 CAO         -2.1980     0.0000     1.1980 c3         1 ROA      -0.025100
     10 CAN         -2.7080    -1.4420     1.1980 c3         1 ROA       0.041100
     11 CAP         -4.2100    -1.4440     1.0730 c          1 ROA       0.883600
     12 OAR         -4.8910    -1.8590     1.9800 o          1 ROA      -0.828800
     13 OAQ         -4.7910    -0.9840    -0.0460 o          1 ROA      -0.828800
     14 OAM         -2.3300    -2.0810     2.4190 os         1 ROA      -0.403900
     15 CAK         -2.1200    -3.4130     2.3740 c          1 ROA       0.641300
     16 OAL         -2.2540    -4.0150     1.3250 o          1 ROA      -0.558000
     17 CAJ         -1.7430    -4.1120     3.5490 ce         1 ROA      -0.175200
     18 CAI         -1.5330    -5.4460     3.5040 cf         1 ROA      -0.068200
     19 CAC         -1.1420    -6.1690     4.7210 ca         1 ROA      -0.047800
     20 CAD         -0.9230    -7.5520     4.6770 ca         1 ROA      -0.142000
     21 CAE         -0.5570    -8.2260     5.8240 ca         1 ROA       0.086100
     22 OAG         -0.3430    -9.5680     5.7850 oh         1 ROA      -0.516100
     23 CAF         -0.4040    -7.5310     7.0240 ca         1 ROA       0.082100
     24 OAH         -0.0410    -8.1960     8.1510 oh         1 ROA      -0.515100
     25 CAB         -0.6200    -6.1590     7.0690 ca         1 ROA      -0.154000
     26 CAA         -0.9820    -5.4780     5.9280 ca         1 ROA      -0.113000
     27 HAU         -0.5420     0.0000    -0.9380 ha         1 ROA       0.151000
     28 HOAY         2.0240     0.8590    -1.5640 ho         1 ROA       0.412000
     29 HOAZ         3.7520    -0.8570     1.4490 ho         1 ROA       0.412000
     30 HAX          1.9180    -0.0010     3.3440 ha         1 ROA       0.127000
     31 HAT         -0.5470    -0.0010     3.3330 ha         1 ROA       0.142000
     32 HAO         -2.5590     0.5110     2.0820 hc         1 ROA       0.071200
     33 HAOA        -2.5590     0.5110     0.3130 hc         1 ROA       0.071200
     34 HAN         -2.2750    -1.9780     0.3610 h1         1 ROA       0.068700
     35 HAJ         -1.6240    -3.5760     4.4830 ha         1 ROA       0.134000
     36 HAI         -1.6520    -5.9810     2.5700 ha         1 ROA       0.161000
     37 HAD         -0.9660    -8.0770     3.7300 ha         1 ROA       0.148000
     38 HOAG        -1.1680   -10.0150     5.6860 ho         1 ROA       0.420000
     39 HOAH         0.8630    -8.0130     8.3470 ho         1 ROA       0.416000
     40 HAB         -0.4990    -5.6240     8.0020 ha         1 ROA       0.138000
     41 HAA         -1.1500    -4.4080     5.9670 ha         1 ROA       0.147000
@<TRIPOS>BOND
     1     1     2 ar
     2     1     8 ar
     3     1    27 1
     4     2     3 1
     5     2     4 ar
     6     3    28 1
     7     4     5 1
     8     4     6 ar
     9     5    29 1
    10     6     7 ar
    11     6    30 1
    12     7     8 ar
    13     7    31 1
    14     8     9 1
    15     9    10 1
    16     9    32 1
    17     9    33 1
    18    10    11 1
    19    10    14 1
    20    10    34 1
    21    11    12 1
    22    11    13 1
    23    14    15 1
    24    15    16 2
    25    15    17 1
    26    17    18 2
    27    17    35 1
    28    18    19 1
    29    18    36 1
    30    19    20 ar
    31    19    26 ar
    32    20    21 ar
    33    20    37 1
    34    21    22 1
    35    21    23 ar
    36    22    38 1
    37    23    24 1
    38    23    25 ar
    39    24    39 1
    40    25    26 ar
    41    25    40 1
    42    26    41 1
@<TRIPOS>SUBSTRUCTURE
     1 ROA         1 TEMP              0 ****  ****    0 ROOT
