@<TRIPOS>MOLECULE
ROA
   41    42     1     0     0
SMALL
bcc


@<TRIPOS>ATOM
      1 CAU         0.0420    0.6460    1.1960 ca        1 ROA     -0.140000
      2 CAV         1.4300    0.8320    1.1780 ca        1 ROA      0.101100
      3 OAY         1.9010    2.0830    0.8420 oh        1 ROA     -0.505100
      4 CAW         2.2860   -0.2350    1.5110 ca        1 ROA      0.007100
      5 OAZ         3.6460    0.0280    1.4900 oh        1 ROA     -0.530100
      6 CAX         1.7520   -1.4800    1.8590 ca        1 ROA     -0.169000
      7 CAT         0.3730   -1.6540    1.8770 ca        1 ROA     -0.127000
      8 CAS        -0.4910   -0.6000    1.5460 ca        1 ROA     -0.041300
      9 CAO        -1.9680   -0.7800    1.5820 c3        1 ROA     -0.042100
     10 CAN        -2.4430   -2.1550    1.1500 c3        1 ROA      0.026100
     11 CAP        -3.9150   -2.1370    0.6440 c         1 ROA      0.908600
     12 OAR        -4.6200   -3.1310    0.9850 o         1 ROA     -0.821800
     13 OAQ        -4.2980   -1.1700   -0.0610 o         1 ROA     -0.821800
     14 OAM        -2.3930   -2.9980    2.3250 os        1 ROA     -0.475900
     15 CAK        -2.7840   -4.3030    2.1190 c         1 ROA      0.684300
     16 OAL        -2.2730   -4.9240    1.1850 o         1 ROA     -0.550000
     17 CAJ        -3.7290   -4.8150    3.1270 ce        1 ROA     -0.123200
     18 CAI        -3.4510   -5.4220    4.2830 cf        1 ROA     -0.133200
     19 CAC        -2.1410   -5.6950    4.8550 ca        1 ROA     -0.031800
     20 CAD        -1.9820   -6.8350    5.6580 ca        1 ROA     -0.131000
     21 CAE        -0.7410   -7.1130    6.2390 ca        1 ROA      0.097100
     22 OAG        -0.6440   -8.2440    7.0220 oh        1 ROA     -0.505100
     23 CAF         0.3460   -6.2420    6.0230 ca        1 ROA      0.025100
     24 OAH         1.5390   -6.5790    6.6400 oh        1 ROA     -0.527100
     25 CAB         0.1860   -5.1050    5.2280 ca        1 ROA     -0.169000
     26 CAA        -1.0510   -4.8360    4.6500 ca        1 ROA     -0.113000
     27 HAU        -0.6170    1.4840    0.9240 ha        1 ROA      0.153000
     28 HOAY        2.8670    2.0260    0.7930 ho        1 ROA      0.424000
     29 HOAZ        4.0990   -0.8250    1.4650 ho        1 ROA      0.417000
     30 HAX         2.4230   -2.3120    2.1100 ha        1 ROA      0.123000
     31 HAT        -0.0600   -2.6330    2.1470 ha        1 ROA      0.161000
     32 HAO        -2.4700   -0.0380    0.9000 hc        1 ROA      0.080700
     33 HAOA       -2.3250   -0.5800    2.6300 hc        1 ROA      0.080700
     34 HAN        -1.7830   -2.5980    0.3590 h1        1 ROA      0.057700
     35 HAJ        -4.7730   -4.6290    2.7960 ha        1 ROA      0.193000
     36 HAI        -4.2930   -5.7810    4.9050 ha        1 ROA      0.121000
     37 HAD        -2.8220   -7.5210    5.8330 ha        1 ROA      0.147000
     38 HOAG        0.2790   -8.3250    7.3040 ho        1 ROA      0.428000
     39 HOAH        2.2080   -5.9540    6.3300 ho        1 ROA      0.422000
     40 HAB         1.0350   -4.4270    5.0590 ha        1 ROA      0.131000
     41 HAA        -1.1770   -3.9360    4.0220 ha        1 ROA      0.171000
@<TRIPOS>BOND
     1    1    2 ar  
     2    1    8 ar  
     3    1   27 1   
     4    2    3 1   
     5    2    4 ar  
     6    3   28 1   
     7    4    5 1   
     8    4    6 ar  
     9    5   29 1   
    10    6    7 ar  
    11    6   30 1   
    12    7    8 ar  
    13    7   31 1   
    14    8    9 1   
    15    9   10 1   
    16    9   32 1   
    17    9   33 1   
    18   10   11 1   
    19   10   14 1   
    20   10   34 1   
    21   11   12 1   
    22   11   13 1   
    23   14   15 1   
    24   15   16 2   
    25   15   17 1   
    26   17   18 2   
    27   17   35 1   
    28   18   19 1   
    29   18   36 1   
    30   19   20 ar  
    31   19   26 ar  
    32   20   21 ar  
    33   20   37 1   
    34   21   22 1   
    35   21   23 ar  
    36   22   38 1   
    37   23   24 1   
    38   23   25 ar  
    39   24   39 1   
    40   25   26 ar  
    41   25   40 1   
    42   26   41 1   
@<TRIPOS>SUBSTRUCTURE
     1 ROA         1 TEMP              0 ****  ****    0 ROOT
