@<TRIPOS>MOLECULE
molecule
   33    34     1     0     0
SMALL
bcc


@<TRIPOS>ATOM
      1 OAA          0.0000     0.0000     0.0000 o          1 ROD      -0.809800
      2 CAP          1.3470     0.0000     0.0000 c          1 ROD       0.881800
      3 OAD          1.9530     0.0000     1.0520 o          1 ROD      -0.809800
      4 CAS          2.0880    -0.0020    -1.2830 cc         1 ROD       0.040400
      5 NAN          1.4130     0.1370    -2.4760 ns         1 ROD      -0.429100
      6 CAU          2.0670     0.1380    -3.6510 c          1 ROD       0.799500
      7 OAB          1.4340     0.2630    -4.6800 o          1 ROD      -0.703500
      8 NAO          3.4040     0.0050    -3.7150 ns         1 ROD      -0.568500
      9 CAV          4.1320    -0.1350    -2.5890 c          1 ROD       0.698700
     10 OAC          5.3410    -0.2550    -2.6450 o          1 ROD      -0.650500
     11 CAT          3.4400    -0.1340    -1.2930 cd         1 ROD      -0.277400
     12 CAM          4.2100    -0.2870    -0.0080 c3         1 ROD      -0.010200
     13 CAL          4.6420     1.0910     0.4960 c3         1 ROD      -0.048100
     14 CAQ          5.2700     0.9550     1.8590 ca         1 ROD      -0.006300
     15 CAJ          4.4830     1.0390     2.9930 ca         1 ROD      -0.111000
     16 CAH          5.0590     0.9140     4.2440 ca         1 ROD      -0.111000
     17 CAI          6.4200     0.7060     4.3600 ca         1 ROD      -0.158000
     18 CAK          7.2070     0.6210     3.2260 ca         1 ROD      -0.099000
     19 CAR          6.6300     0.7410     1.9750 ca         1 ROD      -0.190300
     20 CAW          7.4880     0.6490     0.7390 c3         1 ROD       0.674200
     21 FAF          7.3100     1.7990    -0.0370 f          1 ROD      -0.224633
     22 FAG          8.8320     0.5390     1.1110 f          1 ROD      -0.224633
     23 FAE          7.1160    -0.4770    -0.0040 f          1 ROD      -0.224633
     24 H2           3.8610     0.0090    -4.6060 hn         1 ROD       0.341500
     25 H4           3.5820    -0.7630     0.7350 hc         1 ROD       0.080700
     26 H5           5.0870    -0.8990    -0.1830 hc         1 ROD       0.080700
     27 H6           3.7760     1.7390     0.5610 hc         1 ROD       0.063200
     28 H7           5.3620     1.5180    -0.1920 hc         1 ROD       0.063200
     29 H8           3.4160     1.2020     2.9010 ha         1 ROD       0.176000
     30 H9           4.4430     0.9800     5.1320 ha         1 ROD       0.126000
     31 H10          6.8720     0.6110     5.3400 ha         1 ROD       0.119000
     32 H11          8.2730     0.4560     3.3170 ha         1 ROD       0.133000
     33 H12          0.4170     0.2390    -2.4680 hn         1 ROD       0.376500
@<TRIPOS>BOND
     1    17    16 ar
     2    17    18 ar
     3    16    15 ar
     4    18    19 ar
     5    15    14 ar
     6    19    14 ar
     7    19    20 1
     8    14    13 1
     9    23    20 1
    10    21    20 1
    11    20    22 1
    12    13    12 1
    13    12    11 1
    14    10     9 2
    15    11     9 1
    16    11     4 2
    17     9     8 1
    18     4     2 1
    19     4     5 1
    20     8     6 1
    21     3     2 1
    22     2     1 1
    23     5     6 1
    24     6     7 2
    25     8    24 1
    26    12    25 1
    27    12    26 1
    28    13    27 1
    29    13    28 1
    30    15    29 1
    31    16    30 1
    32    17    31 1
    33    18    32 1
    34     5    33 1
@<TRIPOS>SUBSTRUCTURE
     1 ROD         1 TEMP              0 ****  ****    0 ROOT
