@<TRIPOS>MOLECULE
ROD
   33    34     1     0     0
SMALL
bcc


@<TRIPOS>ATOM
      1 OAA          0.0000     0.0000     0.0000 o          1 ROD      -0.857800
      2 CAP          1.3470     0.0000     0.0000 c          1 ROD       0.977800
      3 OAD          1.9530     0.0000     1.0520 o          1 ROD      -0.857800
      4 CAS          2.0880    -0.0020    -1.2830 cc         1 ROD      -0.133600
      5 NAN          1.4130     0.1370    -2.4760 ns         1 ROD       0.051900
      6 CAU          2.0670     0.1380    -3.6510 c          1 ROD       0.562500
      7 OAB          1.4340     0.2630    -4.6800 o          1 ROD      -0.758500
      8 NAO          3.4040     0.0050    -3.7150 ns         1 ROD      -0.140500
      9 CAV          4.1320    -0.1350    -2.5890 c          1 ROD       0.615700
     10 OAC          5.3410    -0.2550    -2.6450 o          1 ROD      -0.690500
     11 CAT          3.4400    -0.1340    -1.2930 cd         1 ROD      -0.266400
     12 CAM          4.2100    -0.2870    -0.0080 c3         1 ROD       0.011800
     13 CAL          4.6420     1.0910     0.4960 c3         1 ROD      -0.002100
     14 CAQ          5.2700     0.9550     1.8590 ca         1 ROD       0.010700
     15 CAJ          4.4830     1.0390     2.9930 ca         1 ROD      -0.088000
     16 CAH          5.0590     0.9140     4.2440 ca         1 ROD      -0.078000
     17 CAI          6.4200     0.7060     4.3600 ca         1 ROD      -0.137000
     18 CAK          7.2070     0.6210     3.2260 ca         1 ROD      -0.065000
     19 CAR          6.6300     0.7410     1.9750 ca         1 ROD      -0.222300
     20 CAW          7.4880     0.6490     0.7390 c3         1 ROD       0.649200
     21 FAF          7.3100     1.7990    -0.0370 f          1 ROD      -0.209633
     22 FAG          8.8320     0.5390     1.1110 f          1 ROD      -0.209633
     23 FAE          7.1160    -0.4770    -0.0040 f          1 ROD      -0.209633
     24 H2           3.8610     0.0090    -4.6060 hn         1 ROD       0.188500
     25 H4           3.5820    -0.7630     0.7350 hc         1 ROD       0.062200
     26 H5           5.0870    -0.8990    -0.1830 hc         1 ROD       0.062200
     27 H6           3.7760     1.7390     0.5610 hc         1 ROD       0.036200
     28 H7           5.3620     1.5180    -0.1920 hc         1 ROD       0.036200
     29 H8           3.4160     1.2020     2.9010 ha         1 ROD       0.150000
     30 H9           4.4430     0.9800     5.1320 ha         1 ROD       0.097000
     31 H10          6.8720     0.6110     5.3400 ha         1 ROD       0.096000
     32 H11          8.2730     0.4560     3.3170 ha         1 ROD       0.108000
     33 H12          0.4170     0.2390    -2.4680 hn         1 ROD       0.211500
@<TRIPOS>BOND
     1     1     2 1   
     2     2     3 1   
     3     2     4 1   
     4     4     5 1   
     5     4    11 2   
     6     5     6 1   
     7     5    33 1   
     8     6     7 2   
     9     6     8 1   
    10     8     9 1   
    11     8    24 1   
    12     9    10 2   
    13     9    11 1   
    14    11    12 1   
    15    12    13 1   
    16    12    25 1   
    17    12    26 1   
    18    13    14 1   
    19    13    27 1   
    20    13    28 1   
    21    14    15 ar  
    22    14    19 ar  
    23    15    16 ar  
    24    15    29 1   
    25    16    17 ar  
    26    16    30 1   
    27    17    18 ar  
    28    17    31 1   
    29    18    19 ar  
    30    18    32 1   
    31    19    20 1   
    32    20    21 1   
    33    20    22 1   
    34    20    23 1   
@<TRIPOS>SUBSTRUCTURE
     1 ROD         1 TEMP              0 ****  ****    0 ROOT
