@<TRIPOS>MOLECULE
ROE
   40    42     1     0     0
SMALL
bcc


@<TRIPOS>ATOM
      1 OAB          0.0000     0.0000     0.0000 o          1 ROE      -0.855300
      2 CAQ          1.3470     0.0000     0.0000 c          1 ROE       0.975800
      3 OAE          1.9530     0.0000     1.0520 o          1 ROE      -0.855300
      4 CAT          2.0890     0.0010    -1.2830 cc         1 ROE      -0.132600
      5 NAN          1.4120    -0.1240    -2.4770 ns         1 ROE       0.055900
      6 CAV          2.0670    -0.1260    -3.6500 c          1 ROE       0.559500
      7 OAC          1.4330    -0.2370    -4.6820 o          1 ROE      -0.760500
      8 NAO          3.4050    -0.0060    -3.7150 ns         1 ROE      -0.139500
      9 CAW          4.1340     0.1200    -2.5870 c          1 ROE       0.617700
     10 OAD          5.3440     0.2290    -2.6420 o          1 ROE      -0.699500
     11 CAU          3.4410     0.1300    -1.2920 cd         1 ROE      -0.270400
     12 CAM          4.2130     0.2670    -0.0050 c3         1 ROE       0.021800
     13 CAL          4.6400    -1.1170     0.4840 c3         1 ROE       0.033900
     14 CAR          5.4110    -0.9790     1.7710 ca         1 ROE      -0.079300
     15 CAJ          4.7460    -1.0100     2.9580 ca         1 ROE      -0.062000
     16 CAX          5.4620    -0.8830     4.1610 ca         1 ROE      -0.071000
     17 CAI          4.8080    -0.9120     5.4050 ca         1 ROE      -0.031000
     18 CAG          5.5310    -0.7860     6.5500 ca         1 ROE      -0.214000
     19 CAS          6.9190    -0.6260     6.5100 ca         1 ROE       0.129100
     20 OAP          7.6140    -0.5030     7.6710 os         1 ROE      -0.316900
     21 CAA          6.8620    -0.5440     8.8840 c3         1 ROE       0.243700
     22 CAK          7.5860    -0.5940     5.3190 ca         1 ROE      -0.149000
     23 CAY          6.8700    -0.7210     4.1170 ca         1 ROE      -0.004000
     24 CAH          7.5220    -0.6940     2.8720 ca         1 ROE      -0.130000
     25 CAF          6.7960    -0.8260     1.7300 ca         1 ROE      -0.073000
     26 H2           0.4160    -0.2150    -2.4710 hn         1 ROE       0.212500
     27 H3           3.8620    -0.0110    -4.6050 hn         1 ROE       0.187500
     28 H4           5.0920     0.8780    -0.1750 hc         1 ROE       0.054700
     29 H5           3.5860     0.7370     0.7430 hc         1 ROE       0.054700
     30 H6           5.2670    -1.5870    -0.2640 hc         1 ROE       0.021700
     31 H7           3.7610    -1.7270     0.6540 hc         1 ROE       0.021700
     32 H8           3.6880    -1.2420     2.9800 ha         1 ROE       0.138000
     33 H9           3.7320    -1.0340     5.4510 ha         1 ROE       0.109000
     34 H10          5.0240    -0.8090     7.5080 ha         1 ROE       0.111000
     35 H11          6.3430    -1.4920     8.9560 h1         1 ROE      -0.007633
     36 H12          7.5320    -0.4350     9.7290 h1         1 ROE      -0.007633
     37 H13          6.1400     0.2640     8.8890 h1         1 ROE      -0.007633
     38 H14          8.6620    -0.4700     5.3010 ha         1 ROE       0.112000
     39 H15          8.5980    -0.5750     2.8230 ha         1 ROE       0.098000
     40 H16          7.3020    -0.8120     0.7720 ha         1 ROE       0.105000
@<TRIPOS>BOND
     1     1     2 1   
     2     2     3 1   
     3     2     4 1   
     4     4     5 1   
     5     4    11 2   
     6     5     6 1   
     7     5    26 1   
     8     6     7 2   
     9     6     8 1   
    10     8     9 1   
    11     8    27 1   
    12     9    10 2   
    13     9    11 1   
    14    11    12 1   
    15    12    13 1   
    16    12    28 1   
    17    12    29 1   
    18    13    14 1   
    19    13    30 1   
    20    13    31 1   
    21    14    15 ar  
    22    14    25 ar  
    23    15    16 ar  
    24    15    32 1   
    25    16    17 ar  
    26    16    23 ar  
    27    17    18 ar  
    28    17    33 1   
    29    18    19 ar  
    30    18    34 1   
    31    19    20 1   
    32    19    22 ar  
    33    20    21 1   
    34    21    35 1   
    35    21    36 1   
    36    21    37 1   
    37    22    23 ar  
    38    22    38 1   
    39    23    24 ar  
    40    24    25 ar  
    41    24    39 1   
    42    25    40 1   
@<TRIPOS>SUBSTRUCTURE
     1 ROE         1 TEMP              0 ****  ****    0 ROOT
