@<TRIPOS>MOLECULE
molecule
   40    42     1     0     0
SMALL
bcc


@<TRIPOS>ATOM
      1 OAB          0.0000     0.0000     0.0000 o          1 ROE      -0.806800
      2 CAQ          1.3470     0.0000     0.0000 c          1 ROE       0.879800
      3 OAE          1.9530     0.0000     1.0520 o          1 ROE      -0.806800
      4 CAT          2.0890     0.0010    -1.2830 cc         1 ROE       0.041400
      5 NAN          1.4120    -0.1240    -2.4770 ns         1 ROE      -0.427100
      6 CAV          2.0670    -0.1260    -3.6500 c          1 ROE       0.798500
      7 OAC          1.4330    -0.2370    -4.6820 o          1 ROE      -0.704500
      8 NAO          3.4050    -0.0060    -3.7150 ns         1 ROE      -0.567500
      9 CAW          4.1340     0.1200    -2.5870 c          1 ROE       0.700700
     10 OAD          5.3440     0.2290    -2.6420 o          1 ROE      -0.659500
     11 CAU          3.4410     0.1300    -1.2920 cd         1 ROE      -0.280400
     12 CAM          4.2130     0.2670    -0.0050 c3         1 ROE      -0.005200
     13 CAL          4.6400    -1.1170     0.4840 c3         1 ROE      -0.025100
     14 CAR          5.4110    -0.9790     1.7710 ca         1 ROE      -0.074300
     15 CAJ          4.7460    -1.0100     2.9580 ca         1 ROE      -0.089000
     16 CAX          5.4620    -0.8830     4.1610 ca         1 ROE      -0.067000
     17 CAI          4.8080    -0.9120     5.4050 ca         1 ROE      -0.067000
     18 CAG          5.5310    -0.7860     6.5500 ca         1 ROE      -0.221000
     19 CAS          6.9190    -0.6260     6.5100 ca         1 ROE       0.122100
     20 OAP          7.6140    -0.5030     7.6710 os         1 ROE      -0.339900
     21 CAA          6.8620    -0.5440     8.8840 c3         1 ROE       0.131700
     22 CAK          7.5860    -0.5940     5.3190 ca         1 ROE      -0.164000
     23 CAY          6.8700    -0.7210     4.1170 ca         1 ROE      -0.008000
     24 CAH          7.5220    -0.6940     2.8720 ca         1 ROE      -0.149000
     25 CAF          6.7960    -0.8260     1.7300 ca         1 ROE      -0.101000
     26 H2           0.4160    -0.2150    -2.4710 hn         1 ROE       0.377500
     27 H3           3.8620    -0.0110    -4.6050 hn         1 ROE       0.341500
     28 H4           5.0920     0.8780    -0.1750 hc         1 ROE       0.075700
     29 H5           3.5860     0.7370     0.7430 hc         1 ROE       0.075700
     30 H6           5.2670    -1.5870    -0.2640 hc         1 ROE       0.050700
     31 H7           3.7610    -1.7270     0.6540 hc         1 ROE       0.050700
     32 H8           3.6880    -1.2420     2.9800 ha         1 ROE       0.162000
     33 H9           3.7320    -1.0340     5.4510 ha         1 ROE       0.139000
     34 H10          5.0240    -0.8090     7.5080 ha         1 ROE       0.124000
     35 H11          6.3430    -1.4920     8.9560 h1         1 ROE       0.034700
     36 H12          7.5320    -0.4350     9.7290 h1         1 ROE       0.034700
     37 H13          6.1400     0.2640     8.8890 h1         1 ROE       0.034700
     38 H14          8.6620    -0.4700     5.3010 ha         1 ROE       0.135000
     39 H15          8.5980    -0.5750     2.8230 ha         1 ROE       0.122000
     40 H16          7.3020    -0.8120     0.7720 ha         1 ROE       0.132000
@<TRIPOS>BOND
     1    24    25 ar
     2    24    23 ar
     3    25    14 ar
     4    22    23 ar
     5    22    19 ar
     6    23    16 ar
     7    20    19 1
     8    20    21 1
     9    19    18 ar
    10    14    13 1
    11    14    15 ar
    12    13    12 1
    13    16    15 ar
    14    16    17 ar
    15    18    17 ar
    16    12    11 1
    17    10     9 2
    18    11     9 1
    19    11     4 2
    20     9     8 1
    21     3     2 1
    22     4     2 1
    23     4     5 1
    24     2     1 1
    25     8     6 1
    26     5     6 1
    27     6     7 2
    28     5    26 1
    29     8    27 1
    30    12    28 1
    31    12    29 1
    32    13    30 1
    33    13    31 1
    34    15    32 1
    35    17    33 1
    36    18    34 1
    37    21    35 1
    38    21    36 1
    39    21    37 1
    40    22    38 1
    41    24    39 1
    42    25    40 1
@<TRIPOS>SUBSTRUCTURE
     1 ROE         1 TEMP              0 ****  ****    0 ROOT
