@<TRIPOS>MOLECULE
ROF
   40    42     1     0     0
SMALL
bcc


@<TRIPOS>ATOM
      1 O24          0.0000     0.0000     0.0000 o          1 ROF      -0.630100
      2 C23         -2.4620     0.0080     5.7010 cx         1 ROF      -0.073400
      3 C22         -1.7390    -1.2590     6.1610 cx         1 ROF      -0.073400
      4 C21         -0.9380     0.0020     5.8330 cx         1 ROF      -0.127700
      5 C8           1.2160     0.0000     0.0000 c          1 ROF       0.594700
      6 C9           1.9530     0.0000     1.2780 ca         1 ROF      -0.142600
      7 C10          3.3500     0.0010     1.2800 ca         1 ROF      -0.072000
      8 C11          4.0370     0.0020     2.4740 ca         1 ROF      -0.198000
      9 C12          3.3440     0.0030     3.6770 ca         1 ROF       0.102100
     10 O15          4.0260     0.0040     4.8510 os         1 ROF      -0.271900
     11 C16          5.4170     0.0040     4.5210 c3         1 ROF       0.576700
     12 F18          5.7180    -1.1400     3.7730 f          1 ROF      -0.222300
     13 F17          5.7180     1.1440     3.7710 f          1 ROF      -0.222300
     14 C13          1.9510    -0.0050     3.6820 ca         1 ROF       0.109100
     15 O19          1.2760    -0.0030     4.8630 os         1 ROF      -0.264900
     16 C20         -0.1160     0.0010     4.5420 c3         1 ROF       0.211400
     17 C14          1.2560     0.0000     2.4880 ca         1 ROF      -0.128000
     18 N7           1.8890     0.0000    -1.1670 ns         1 ROF      -0.061100
     19 C6           1.1910     0.0010    -2.3760 ca         1 ROF      -0.046400
     20 C5           0.3200    -1.0390    -2.6990 ca         1 ROF      -0.158400
     21 Cl26         0.0780    -2.3590    -1.5970 cl         1 ROF       0.016600
     22 C4          -0.3550    -0.9990    -3.9030 ca         1 ROF       0.418200
     23 N3          -0.1750    -0.0010    -4.7460 nb         1 ROF      -0.562000
     24 C2           0.6440     0.9990    -4.4790 ca         1 ROF       0.418200
     25 C1           1.3520     1.0360    -3.2950 ca         1 ROF      -0.158400
     26 Cl25         2.4270     2.3560    -2.9540 cl         1 ROF       0.016600
     27 H232        -2.8430    -0.0140     4.6870 hc         1 ROF       0.046700
     28 H221        -1.6780    -2.0550     5.4280 hc         1 ROF       0.046700
     29 H222        -1.8310    -1.4930     7.2140 hc         1 ROF       0.046700
     30 H21         -0.5560     0.5340     6.6960 hc         1 ROF       0.068700
     31 H10          3.8930    -0.0000     0.3420 ha         1 ROF       0.105000
     32 H11          5.1200     0.0020     2.4740 ha         1 ROF       0.158000
     33 H16          6.0040     0.0050     5.4320 h3         1 ROF       0.058700
     34 H201        -0.3560    -0.8820     3.9620 h1         1 ROF       0.017700
     35 H202        -0.3510     0.8870     3.9640 h1         1 ROF       0.017700
     36 H14          0.1730    -0.0050     2.4910 ha         1 ROF       0.160000
     37 HN7          2.8900    -0.0280    -1.1670 hn         1 ROF       0.186500
     38 H4          -1.0350    -1.8010    -4.1610 h4         1 ROF      -0.006900
     39 H2           0.7640     1.7990    -5.2000 h4         1 ROF      -0.006900
     40 H231        -2.9960     0.5480     6.4730 hc         1 ROF       0.046700
@<TRIPOS>BOND
     1     1     5 2   
     2     2     3 1   
     3     2     4 1   
     4     2    27 1   
     5     2    40 1   
     6     3     4 1   
     7     3    28 1   
     8     3    29 1   
     9     4    16 1   
    10     4    30 1   
    11     5     6 1   
    12     5    18 1   
    13     6     7 ar  
    14     6    17 ar  
    15     7     8 ar  
    16     7    31 1   
    17     8     9 ar  
    18     8    32 1   
    19     9    10 1   
    20     9    14 ar  
    21    10    11 1   
    22    11    12 1   
    23    11    13 1   
    24    11    33 1   
    25    14    15 1   
    26    14    17 ar  
    27    15    16 1   
    28    16    34 1   
    29    16    35 1   
    30    17    36 1   
    31    18    19 1   
    32    18    37 1   
    33    19    20 ar  
    34    19    25 ar  
    35    20    21 1   
    36    20    22 ar  
    37    22    23 ar  
    38    22    38 1   
    39    23    24 ar  
    40    24    25 ar  
    41    24    39 1   
    42    25    26 1   
@<TRIPOS>SUBSTRUCTURE
     1 ROF         1 TEMP              0 ****  ****    0 ROOT
