@<TRIPOS>MOLECULE
ROI
   26    27     1     0     0
SMALL
bcc


@<TRIPOS>ATOM
      1 N1          0.0940   -0.0960   -0.0650 nc        1 ROI     -0.732300
      2 C2          1.4030    0.2340   -0.0150 cd        1 ROI      0.705800
      3 N2          2.0580    0.5600   -1.2210 nh        1 ROI     -0.898800
      4 N3          2.1330    0.3250    1.1750 n         1 ROI     -0.509400
      5 C4          1.5100    0.1420    2.4400 c         1 ROI      0.747700
      6 O4          2.2430    0.2730    3.4330 o         1 ROI     -0.608500
      7 C4A         0.0880   -0.1820    2.4060 cd        1 ROI     -0.153600
      8 N5         -0.5790   -0.3620    3.6200 nf        1 ROI     -0.556300
      9 C6         -1.8530   -0.6310    3.5580 c2        1 ROI      0.538600
     10 C7         -2.7210   -0.7770    2.3000 c3        1 ROI      0.206900
     11 C16        -3.8150    0.3040    2.3500 c3        1 ROI     -0.110600
     12 C15        -3.4070   -2.1540    2.3410 c3        1 ROI     -0.110600
     13 N8         -1.8990   -0.6500    1.0980 nh        1 ROI     -0.755000
     14 C8A        -0.5660   -0.2950    1.1490 cc        1 ROI      0.431600
     15 O9         -2.6010   -0.8150    4.7020 oh        1 ROI     -0.591600
     16 HN21        3.0260    0.3350   -1.2680 hn        1 ROI      0.424300
     17 HN22        1.5440    0.3620   -2.0510 hn        1 ROI      0.424300
     18 HN3         3.0910    0.6020    1.1700 hn        1 ROI      0.334500
     19 H161       -4.3920    0.1810    3.2990 hc        1 ROI      0.053033
     20 H162       -3.3680    1.3260    2.3340 hc        1 ROI      0.053033
     21 H163       -4.5110    0.1980    1.4850 hc        1 ROI      0.053033
     22 H151       -2.6510   -2.9750    2.3300 hc        1 ROI      0.053033
     23 H152       -4.0900   -2.2770    1.4680 hc        1 ROI      0.053033
     24 H153       -4.0010   -2.2250    3.2840 hc        1 ROI      0.053033
     25 HN8        -2.3830   -0.6500    0.2310 hn        1 ROI      0.451800
     26 HO9        -2.0280   -0.7100    5.4800 ho        1 ROI      0.442000
@<TRIPOS>BOND
     1    1    2 2
     2    1   14 1
     3    2    3 1
     4    2    4 1
     5    3   16 1
     6    3   17 1
     7    4    5 1
     8    4   18 1
     9    5    6 2
    10    5    7 1
    11    7    8 1
    12    7   14 2
    13    8    9 2
    14    9   10 1
    15    9   15 1
    16   10   11 1
    17   10   12 1
    18   10   13 1
    19   11   19 1
    20   11   20 1
    21   11   21 1
    22   12   22 1
    23   12   23 1
    24   12   24 1
    25   13   14 1
    26   13   25 1
    27   15   26 1
@<TRIPOS>SUBSTRUCTURE
     1 ROI         1 TEMP              0 ****  ****    0 ROOT
