@<TRIPOS>MOLECULE
molecule
   30    30     1     0     0
SMALL
bcc


@<TRIPOS>ATOM
      1 O7           0.0000     0.0000     0.0000 o          1 ROK      -0.641300
      2 S2           1.4340     0.0000     0.0000 sy         1 ROK       1.545900
      3 O6           1.9050     0.0000     1.3550 o          1 ROK      -0.641300
      4 N5           1.9740    -1.2280    -0.6930 ns         1 ROK      -0.678300
      5 C10          1.5730    -1.7050    -1.8700 c          1 ROK       0.772100
      6 O13          0.5760    -1.1440    -2.5580 o          1 ROK      -0.651100
      7 N12          2.2180    -2.7840    -2.3200 ns         1 ROK      -0.553900
      8 C15          1.8910    -3.4150    -3.5840 c3         1 ROK       0.129000
      9 C16          1.6110    -4.8410    -3.1840 c3         1 ROK       0.000700
     10 S17         -0.1790    -4.9940    -3.3190 sh         1 ROK      -0.387900
     11 C1           2.0070     1.2700    -0.7800 ca         1 ROK      -0.467500
     12 C4           3.2900     1.7200    -0.4900 ca         1 ROK       0.011500
     13 C9           3.8230     2.8240    -1.1560 ca         1 ROK      -0.183500
     14 C11          3.0700     3.4810    -2.1230 ca         1 ROK       0.246600
     15 N14          3.6070     4.5550    -2.7520 nv         1 ROK      -0.992200
     16 C8           1.7820     3.0420    -2.4260 ca         1 ROK      -0.183500
     17 C3           1.2580     1.9340    -1.7520 ca         1 ROK       0.011500
     18 H5           2.7000    -1.7320    -0.2240 hn         1 ROK       0.347500
     19 H12          2.9540    -3.1720    -1.7640 hn         1 ROK       0.314500
     20 H151         2.7320    -3.3670    -4.2660 h1         1 ROK       0.089700
     21 H152         1.0120    -2.9610    -4.0240 h1         1 ROK       0.089700
     22 H161         1.9310    -5.0180    -2.1650 h1         1 ROK       0.063200
     23 H162         2.1020    -5.5280    -3.8620 h1         1 ROK       0.063200
     24 H17         -0.5450    -6.2220    -2.9720 hs         1 ROK       0.206800
     25 H4           3.8800     1.2120     0.2630 ha         1 ROK       0.160000
     26 H3           0.2580     1.5890    -1.9840 ha         1 ROK       0.160000
     27 H9           4.8230     3.1670    -0.9220 ha         1 ROK       0.147000
     28 H141         3.4710     5.4740    -2.3780 hn         1 ROK       0.438300
     29 H142         4.1220     4.4320    -3.6010 hn         1 ROK       0.438300
     30 H8           1.1930     3.5520    -3.1790 ha         1 ROK       0.147000
@<TRIPOS>BOND
     1     1     2 2
     2     2     3 2
     3     2     4 1
     4     2    11 1
     5     4     5 1
     6     5     6 2
     7     5     7 1
     8     7     8 1
     9     8     9 1
    10     9    10 1
    11    11    12 ar
    12    11    17 ar
    13    12    13 ar
    14    13    14 ar
    15    14    15 1
    16    14    16 ar
    17    16    17 ar
    18     4    18 1
    19     7    19 1
    20     8    20 1
    21     8    21 1
    22     9    22 1
    23     9    23 1
    24    10    24 1
    25    12    25 1
    26    17    26 1
    27    13    27 1
    28    15    28 1
    29    15    29 1
    30    16    30 1
@<TRIPOS>SUBSTRUCTURE
     1 ROK         1 TEMP              0 ****  ****    0 ROOT
