@<TRIPOS>MOLECULE
ROL
   41    43     1     0     0
SMALL
bcc


@<TRIPOS>ATOM
      1 C5           0.0000     0.0000     0.0000 ca         1 ROL      -0.085300
      2 C6           1.3810     0.0000     0.0000 ca         1 ROL      -0.193000
      3 C7           2.0750     0.0000     1.1990 ca         1 ROL       0.110100
      4 C8           1.3770    -0.0090     2.4020 ca         1 ROL       0.100100
      5 C9          -0.0080    -0.0100     2.3970 ca         1 ROL      -0.182000
      6 C10         -0.6940    -0.0050     1.1960 ca         1 ROL      -0.100000
      7 C3          -0.7530     0.0050    -1.3050 c3         1 ROL       0.006600
      8 C2          -1.7370    -1.1840    -1.3810 c3         1 ROL      -0.115400
      9 C1          -2.9450    -0.6200    -2.0960 c          1 ROL       0.619500
     10 O1          -3.8240    -1.2840    -2.6030 o          1 ROL      -0.670500
     11 N1          -2.9020     0.7220    -2.0890 ns         1 ROL      -0.207900
     12 C4          -1.7110     1.2130    -1.3850 c3         1 ROL       0.037000
     13 O3           3.4350     0.0010     1.2000 os         1 ROL      -0.255900
     14 C11          3.8490     0.1570    -0.1580 c3         1 ROL       0.131100
     15 C15          5.2870     0.7030    -0.2110 c3         1 ROL      -0.047400
     16 C14          6.1320    -0.3560    -0.9480 c3         1 ROL      -0.022400
     17 C13          5.1030    -1.1390    -1.8010 c3         1 ROL      -0.022400
     18 C12          3.8710    -1.2140    -0.8640 c3         1 ROL      -0.047400
     19 O2           2.0530    -0.0150     3.5830 os         1 ROL      -0.266900
     20 C16          1.0710    -0.0200     4.6210 c3         1 ROL       0.213700
     21 H61          1.9220     0.0060    -0.9380 ha         1 ROL       0.150000
     22 H91         -0.5540    -0.0160     3.3330 ha         1 ROL       0.136000
     23 H101        -1.7770    -0.0050     1.1920 ha         1 ROL       0.112000
     24 H31         -0.0750    -0.0040    -2.1500 hc         1 ROL       0.039700
     25 H21         -2.0080    -1.5150    -0.3850 hc         1 ROL       0.049700
     26 H22         -1.3050    -1.9970    -1.9530 hc         1 ROL       0.049700
     27 H1          -3.5930     1.3120    -2.5090 hn         1 ROL       0.194500
     28 H41         -1.2510     2.0180    -1.9460 h1         1 ROL       0.021200
     29 H42         -1.9770     1.5460    -0.3890 h1         1 ROL       0.021200
     30 H111         3.1800     0.8310    -0.6800 h1         1 ROL       0.036700
     31 H151         5.3070     1.6380    -0.7580 hc         1 ROL       0.028450
     32 H152         5.6660     0.8450     0.7930 hc         1 ROL       0.028450
     33 H141         6.6130    -1.0170    -0.2370 hc         1 ROL       0.017200
     34 H142         6.8650     0.1230    -1.5860 hc         1 ROL       0.017200
     35 H131         5.4710    -2.1320    -2.0280 hc         1 ROL       0.017200
     36 H132         4.8630    -0.5930    -2.7050 hc         1 ROL       0.017200
     37 H121         2.9650    -1.3550    -1.4420 hc         1 ROL       0.028450
     38 H122         3.9950    -2.0100    -0.1400 hc         1 ROL       0.028450
     39 H161         0.4520     0.8650     4.5370 h1         1 ROL       0.002367
     40 H162         1.5650    -0.0240     5.5850 h1         1 ROL       0.002367
     41 H163         0.4520    -0.9040     4.5290 h1         1 ROL       0.002367
@<TRIPOS>BOND
     1     1     2 ar  
     2     1     6 ar  
     3     1     7 1   
     4     2     3 ar  
     5     2    21 1   
     6     3     4 ar  
     7     3    13 1   
     8     4     5 ar  
     9     4    19 1   
    10     5     6 ar  
    11     5    22 1   
    12     6    23 1   
    13     7     8 1   
    14     7    12 1   
    15     7    24 1   
    16     8     9 1   
    17     8    25 1   
    18     8    26 1   
    19     9    10 2   
    20     9    11 1   
    21    11    12 1   
    22    11    27 1   
    23    12    28 1   
    24    12    29 1   
    25    13    14 1   
    26    14    15 1   
    27    14    18 1   
    28    14    30 1   
    29    15    16 1   
    30    15    31 1   
    31    15    32 1   
    32    16    17 1   
    33    16    33 1   
    34    16    34 1   
    35    17    18 1   
    36    17    35 1   
    37    17    36 1   
    38    18    37 1   
    39    18    38 1   
    40    19    20 1   
    41    20    39 1   
    42    20    40 1   
    43    20    41 1   
@<TRIPOS>SUBSTRUCTURE
     1 ROL         1 TEMP              0 ****  ****    0 ROOT
