@<TRIPOS>MOLECULE
molecule
   13    12     1     0     0
SMALL
bcc


@<TRIPOS>ATOM
      1 CA           0.0000     0.0000     0.0000 c3         1 ROP      -0.085100
      2 CB           1.5290     0.0000     0.0000 c3         1 ROP      -0.160400
      3 CG           2.0330     0.0000     1.4190 c          1 ROP       0.473100
      4 OD1          1.2450     0.0000     2.3420 o          1 ROP      -0.385100
      5 ND2          3.3570    -0.0000     1.6650 nz         1 ROP      -0.685400
      6 HCA1        -0.3610     0.8840     0.5110 hc         1 ROP       0.072700
      7 HCA2        -0.3610    -0.8850     0.5110 hc         1 ROP       0.072700
      8 HCA3        -0.3610     0.0000    -1.0210 hc         1 ROP       0.072700
      9 HCB1         1.8900    -0.8840    -0.5110 hc         1 ROP       0.093700
     10 HCB2         1.8900     0.8840    -0.5110 hc         1 ROP       0.093700
     11 HND1         3.7710     0.8170     1.2620 hn         1 ROP       0.478800
     12 HND2         3.7710    -0.8170     1.2620 hn         1 ROP       0.478800
     13 HD23         3.5130    -0.0000     2.6530 hn         1 ROP       0.478800
@<TRIPOS>BOND
     1     1     2 1
     2     1     6 1
     3     1     7 1
     4     1     8 1
     5     2     3 1
     6     2     9 1
     7     2    10 1
     8     3     4 2
     9     3     5 1
    10     5    11 1
    11     5    12 1
    12    13     5 1
@<TRIPOS>SUBSTRUCTURE
     1 ROP         1 TEMP              0 ****  ****    0 ROOT
