@<TRIPOS>MOLECULE
molecule
   36    37     1     0     0
SMALL
bcc


@<TRIPOS>ATOM
      1 OAA          0.0000     0.0000     0.0000 o          1 ROU      -0.804800
      2 CAR          1.3470     0.0000     0.0000 c          1 ROU       0.879800
      3 OAD          1.9540     0.0000     1.0510 o          1 ROU      -0.804800
      4 CAV          2.0870    -0.0000    -1.2850 cc         1 ROU       0.047400
      5 NAP          1.4100    -0.1240    -2.4780 ns         1 ROU      -0.426100
      6 CAX          2.0630    -0.1260    -3.6510 c          1 ROU       0.798500
      7 OAB          1.4280    -0.2390    -4.6830 o          1 ROU      -0.701500
      8 NAQ          3.4000    -0.0080    -3.7180 ns         1 ROU      -0.566500
      9 CAY          4.1310     0.1190    -2.5910 c          1 ROU       0.701700
     10 OAC          5.3420     0.2270    -2.6470 o          1 ROU      -0.660500
     11 CAW          3.4400     0.1290    -1.2950 cd         1 ROU      -0.288400
     12 CAO          4.2130     0.2680    -0.0090 c3         1 ROU      -0.004200
     13 CAN          4.6400    -1.1180     0.4810 c3         1 ROU      -0.026100
     14 CAS          5.4120    -0.9800     1.7680 ca         1 ROU      -0.060300
     15 CAK          6.7850    -0.8150     1.7350 ca         1 ROU      -0.040000
     16 CAT          7.4930    -0.6830     2.9150 ca         1 ROU      -0.201300
     17 CAZ          8.9890    -0.5050     2.8800 c3         1 ROU       0.674700
     18 FAF          9.4770    -0.3930     4.1870 f          1 ROU      -0.226633
     19 FAG          9.5760    -1.6110     2.2560 f          1 ROU      -0.226633
     20 FAE          9.3040     0.6560     2.1650 f          1 ROU      -0.226633
     21 CAM          6.8290    -0.7140     4.1270 ca         1 ROU      -0.063000
     22 CAU          5.4570    -0.8770     4.1600 ca         1 ROU      -0.201300
     23 CBA          4.7320    -0.9110     5.4810 c3         1 ROU       0.674700
     24 FAI          3.7990     0.1300     5.5270 f          1 ROU      -0.226633
     25 FAJ          4.0710    -2.1370     5.6190 f          1 ROU      -0.226633
     26 FAH          5.6550    -0.7580     6.5220 f          1 ROU      -0.226633
     27 CAL          4.7490    -1.0090     2.9800 ca         1 ROU      -0.040000
     28 H2           0.4130    -0.2140    -2.4700 hn         1 ROU       0.378500
     29 H3           3.8570    -0.0130    -4.6090 hn         1 ROU       0.343500
     30 H4           3.5870     0.7380     0.7400 hc         1 ROU       0.077700
     31 H5           5.0920     0.8780    -0.1790 hc         1 ROU       0.077700
     32 H6           5.2670    -1.5880    -0.2670 hc         1 ROU       0.057200
     33 H7           3.7610    -1.7280     0.6510 hc         1 ROU       0.057200
     34 H8           7.3090    -0.8290     0.7880 ha         1 ROU       0.162000
     35 H9           7.3830    -0.5970     5.0510 ha         1 ROU       0.153000
     36 H10          3.7440    -1.3900     3.1170 ha         1 ROU       0.162000
@<TRIPOS>BOND
     1    20    17 1
     2    19    17 1
     3    17    16 1
     4    17    18 1
     5    24    23 1
     6    16    21 ar
     7    16    15 ar
     8    21    22 ar
     9    15    14 ar
    10    22    23 1
    11    22    27 ar
    12    14    27 ar
    13    14    13 1
    14    23    26 1
    15    23    25 1
    16    13    12 1
    17    12    11 1
    18    10     9 2
    19    11     9 1
    20    11     4 2
    21     9     8 1
    22     3     2 1
    23     1     2 1
    24     2     4 1
    25     4     5 1
    26     8     6 1
    27     5     6 1
    28     6     7 2
    29     5    28 1
    30     8    29 1
    31    12    30 1
    32    12    31 1
    33    13    32 1
    34    13    33 1
    35    15    34 1
    36    21    35 1
    37    27    36 1
@<TRIPOS>SUBSTRUCTURE
     1 ROU         1 TEMP              0 ****  ****    0 ROOT
