@<TRIPOS>MOLECULE
RP1
   34    37     1     0     0
SMALL
bcc


@<TRIPOS>ATOM
      1 P            0.0000     0.0000     0.0000 p5         1 RP1       0.686200
      2 S1P         -0.6120    -0.1380    -1.7550 s          1 RP1      -0.201000
      3 O2P         -0.5300     1.3800     0.6380 oh         1 RP1      -0.650400
      4 O5'          1.6070     0.0000     0.0000 os         1 RP1      -0.380200
      5 C5'          2.0630     0.0000     1.3600 c3         1 RP1       0.213400
      6 C4'          1.5080    -1.2420     2.0330 c3         1 RP1       0.078100
      7 O4'          1.9170    -1.4500     3.3850 os         1 RP1      -0.378600
      8 C3'         -0.0300    -1.0810     2.1560 c3         1 RP1       0.104100
      9 O3'         -0.5760    -1.2400     0.8620 os         1 RP1      -0.335200
     10 C2'         -0.3680    -2.1990     3.1580 c3         1 RP1       0.153100
     11 O2'         -0.7290    -3.3990     2.4710 oh         1 RP1      -0.547800
     12 C1'          0.9550    -2.3780     3.9440 c3         1 RP1       0.147800
     13 N9           0.7380    -2.0780     5.3610 na         1 RP1       0.187000
     14 C8           0.9550    -0.8800     5.9750 cc         1 RP1       0.252700
     15 N7           0.6580    -0.9680     7.2380 nd         1 RP1      -0.485100
     16 C5           0.2270    -2.2220     7.5150 ca         1 RP1      -0.229200
     17 C6          -0.2080    -2.8850     8.6740 ca         1 RP1       0.593200
     18 N6          -0.2740    -2.2190     9.8870 nv         1 RP1      -0.510500
     19 N1          -0.5590    -4.1620     8.5800 nb         1 RP1      -0.721000
     20 C2          -0.4990    -4.8050     7.4280 ca         1 RP1       0.686900
     21 N3          -0.0930    -4.2270     6.3170 nb         1 RP1      -0.673000
     22 C4           0.2790    -2.9520     6.3140 ca         1 RP1       0.264800
     23 HOP2        -0.6920     2.0030    -0.0500 ho         1 RP1       0.477000
     24 H5'1         1.7000     0.8850     1.8680 h1         1 RP1       0.028200
     25 H5'2         3.1460    -0.0250     1.3820 h1         1 RP1       0.028200
     26 H4'          1.7400    -2.1180     1.4390 h1         1 RP1       0.065700
     27 H3'         -0.2810    -0.1090     2.5640 h1         1 RP1       0.044700
     28 H2'         -1.1610    -1.8820     3.8230 h1         1 RP1       0.027700
     29 HO2'        -1.6400    -3.5880     2.6250 ho         1 RP1       0.407000
     30 H1'          1.3160    -3.3930     3.8280 h2         1 RP1       0.074700
     31 H8           1.3220     0.0130     5.4830 h5         1 RP1       0.037800
     32 HN61        -0.5500    -1.2580     9.9150 hn         1 RP1       0.277300
     33 HN62        -0.0850    -2.7110    10.7380 hn         1 RP1       0.277300
     34 H2          -0.7950    -5.8470     7.3950 h5         1 RP1      -0.001900
@<TRIPOS>BOND
     1     1     2 2   
     2     1     3 1   
     3     1     4 1   
     4     1     9 1   
     5     3    23 1   
     6     4     5 1   
     7     5     6 1   
     8     5    24 1   
     9     5    25 1   
    10     6     7 1   
    11     6     8 1   
    12     6    26 1   
    13     7    12 1   
    14     8     9 1   
    15     8    10 1   
    16     8    27 1   
    17    10    11 1   
    18    10    12 1   
    19    10    28 1   
    20    11    29 1   
    21    12    13 1   
    22    12    30 1   
    23    13    14 1   
    24    13    22 1   
    25    14    15 2   
    26    14    31 1   
    27    15    16 1   
    28    16    17 ar  
    29    16    22 ar  
    30    17    18 1   
    31    17    19 ar  
    32    18    32 1   
    33    18    33 1   
    34    19    20 ar  
    35    20    21 ar  
    36    20    34 1   
    37    21    22 ar  
@<TRIPOS>SUBSTRUCTURE
     1 RP1         1 TEMP              0 ****  ****    0 ROOT
