@<TRIPOS>MOLECULE
RP2
   34    37     1     0     0
SMALL
bcc


@<TRIPOS>ATOM
      1 P          -0.0880    0.1070    0.0960 p5        1 RP2      1.242200
      2 BR          3.3140   -1.9920    3.6730 br        1 RP2      0.027700
      3 N1          8.6050    1.3400    4.9500 nb        1 RP2     -0.791000
      4 C2          8.0710    2.1070    3.9660 ca        1 RP2      0.701900
      5 N3          6.9280    1.9470    3.2540 nb        1 RP2     -0.735000
      6 C4          6.2360    0.8270    3.6160 ca        1 RP2      0.484800
      7 C5          6.6780   -0.0920    4.6530 ca        1 RP2     -0.240200
      8 C6          7.9150    0.2070    5.3220 ca        1 RP2      0.773200
      9 N6          8.3900   -0.6200    6.2990 nh        1 RP2     -0.953500
     10 N7          5.7560   -1.1350    4.7940 nc        1 RP2     -0.493100
     11 C8          4.7910   -0.8840    3.8930 cd        1 RP2      0.350800
     12 N9          5.0340    0.2850    3.1090 na        1 RP2     -0.254000
     13 C1'         4.1950    0.9890    2.1860 c3        1 RP2      0.241800
     14 S1P        -1.1810    0.2100   -1.3980 s         1 RP2     -0.515000
     15 C2'         3.7700    0.1800    0.8940 c3        1 RP2      0.132100
     16 O2'         4.1990    0.9600   -0.1980 oh        1 RP2     -0.580800
     17 O2P        -0.1700   -1.2560    0.9180 oh        1 RP2     -0.756400
     18 C3'         2.2440    0.1190    1.0330 c3        1 RP2      0.060100
     19 O3'         1.5100    0.1670   -0.1660 os        1 RP2     -0.504200
     20 C4'         1.9370    1.3830    1.8700 c3        1 RP2      0.051100
     21 O4'         2.9610    1.4170    2.8560 os        1 RP2     -0.395600
     22 C5'         0.5200    1.2440    2.4100 c3        1 RP2      0.183400
     23 O5'        -0.3420    1.1450    1.2870 os        1 RP2     -0.540200
     24 HN6         9.2390   -0.4170    6.7680 hn        1 RP2      0.454300
     25 HN6A        7.8650   -1.4190    6.5530 hn        1 RP2      0.454300
     26 H1'         4.7260    1.9360    1.8580 h2        1 RP2      0.142700
     27 H2'         4.2280   -0.8400    0.8410 h1        1 RP2      0.084700
     28 HO2'        3.6790    0.6830   -0.9670 ho        1 RP2      0.437000
     29 HO2P       -0.7940   -1.9270    0.6350 ho        1 RP2      0.509000
     30 H3'         1.9550   -0.8210    1.5880 h1        1 RP2      0.097700
     31 H4'         2.0330    2.3200    1.2470 h1        1 RP2      0.093700
     32 H5'         0.4010    0.3360    3.0580 h1        1 RP2      0.088700
     33 H5'A        0.1890    2.1620    2.9650 h1        1 RP2      0.088700
     34 H2          8.6660    3.0100    3.7050 h5        1 RP2      0.059100
@<TRIPOS>BOND
     1    1   14 2   
     2    1   17 1   
     3    1   19 1   
     4    1   23 1   
     5    2   11 1   
     6    3    4 ar  
     7    3    8 ar  
     8    4    5 ar  
     9    4   34 1   
    10    5    6 ar  
    11    6    7 ar  
    12    6   12 1   
    13    7    8 ar  
    14    7   10 1   
    15    8    9 1   
    16    9   24 1   
    17    9   25 1   
    18   10   11 2   
    19   11   12 1   
    20   12   13 1   
    21   13   15 1   
    22   13   21 1   
    23   13   26 1   
    24   15   16 1   
    25   15   18 1   
    26   15   27 1   
    27   16   28 1   
    28   17   29 1   
    29   18   19 1   
    30   18   20 1   
    31   18   30 1   
    32   20   21 1   
    33   20   22 1   
    34   20   31 1   
    35   22   23 1   
    36   22   32 1   
    37   22   33 1   
@<TRIPOS>SUBSTRUCTURE
     1 RP2         1 TEMP              0 ****  ****    0 ROOT
