@<TRIPOS>MOLECULE
RP3
   22    22     1     0     0
SMALL
bcc


@<TRIPOS>ATOM
      1 O3X         3.0880    0.2240    1.1850 o         1 RP3     -0.932833
      2 P'          3.7090    0.5690   -0.1350 p5        1 RP3      1.330900
      3 O1X         4.6620    1.7510   -0.1070 o         1 RP3     -0.932833
      4 O2X         4.1160   -0.5500   -1.0470 o         1 RP3     -0.932833
      5 O5'         2.3880    1.2720   -1.0220 os        1 RP3     -0.568200
      6 C5'         2.1460    2.5900   -0.7430 c3        1 RP3      0.222400
      7 C4'         2.5870    3.5410   -1.8870 c3        1 RP3      0.109100
      8 O1'         3.0390    4.7870   -1.3090 os        1 RP3     -0.480600
      9 C3'         3.7360    2.9910   -2.7350 c3        1 RP3     -0.093400
     10 C2'         4.9860    3.7120   -2.2330 c3        1 RP3      0.069100
     11 O2'         5.6840    4.2880   -3.3340 oh        1 RP3     -0.628800
     12 C1'         4.4630    4.8180   -1.2830 c3        1 RP3      0.327900
     13 O1          4.8370    4.6350    0.0480 oh        1 RP3     -0.679800
     14 H3          1.0330    2.7480   -0.6090 h1        1 RP3     -0.007300
     15 H4          2.6700    2.9120    0.2010 h1        1 RP3     -0.007300
     16 H5          1.7100    3.8260   -2.5250 h1        1 RP3      0.008700
     17 H6          3.5720    3.1750   -3.8220 hc        1 RP3      0.074700
     18 H7          3.8410    1.8860   -2.5320 hc        1 RP3      0.074700
     19 H8          5.6370    2.9910   -1.6550 h1        1 RP3      0.139700
     20 H9          6.5690    4.4760   -3.0070 ho        1 RP3      0.373000
     21 H10         4.7800    5.8540   -1.5770 h2        1 RP3      0.032700
     22 H11         4.6960    3.6860    0.2770 ho        1 RP3      0.502000
@<TRIPOS>BOND
     1    1    2 1   
     2    2    3 1   
     3    2    4 1   
     4    2    5 1   
     5    5    6 1   
     6    6    7 1   
     7    6   14 1   
     8    6   15 1   
     9    7    8 1   
    10    7    9 1   
    11    7   16 1   
    12    8   12 1   
    13    9   10 1   
    14    9   17 1   
    15    9   18 1   
    16   10   11 1   
    17   10   12 1   
    18   10   19 1   
    19   11   20 1   
    20   12   13 1   
    21   12   21 1   
    22   13   22 1   
@<TRIPOS>SUBSTRUCTURE
     1 RP3         1 TEMP              0 ****  ****    0 ROOT
