@<TRIPOS>MOLECULE
molecule
   22    22     1     0     0
SMALL
bcc


@<TRIPOS>ATOM
      1 O3X          0.0000     0.0000     0.0000 o          1 RP3      -0.909833
      2 P'           1.6100     0.0000     0.0000 p5         1 RP3       1.179900
      3 O1X          2.1470     0.0000     1.5170 o          1 RP3      -0.909833
      4 O2X          2.1030    -1.2090    -0.6980 o          1 RP3      -0.909833
      5 O5'          2.1470     1.3140    -0.7600 os         1 RP3      -0.568200
      6 C5'          3.5330     1.5520    -1.0180 c3         1 RP3       0.227400
      7 C4'          3.6920     2.8850    -1.7520 c3         1 RP3       0.137100
      8 O1'          3.3600     3.9880    -0.8810 os         1 RP3      -0.381600
      9 C3'          5.1800     3.1360    -2.1090 c3         1 RP3      -0.131400
     10 C2'          5.2310     4.6800    -2.2210 c3         1 RP3       0.103100
     11 O2'          5.1300     5.0850    -3.5880 oh         1 RP3      -0.606800
     12 C1'          3.9970     5.1570    -1.4240 c3         1 RP3       0.317900
     13 O1           4.4090     6.0220    -0.3640 oh         1 RP3      -0.616800
     14 H3           3.9290     0.7520    -1.6310 h1         1 RP3       0.022700
     15 H4           4.0730     1.5890    -0.0790 h1         1 RP3       0.022700
     16 H5           3.0800     2.9100    -2.6450 h1         1 RP3       0.052700
     17 H6           5.4320     2.6730    -3.0550 hc         1 RP3       0.057200
     18 H7           5.8290     2.7870    -1.3150 hc         1 RP3       0.057200
     19 H8           6.1400     5.0610    -1.7730 h1         1 RP3       0.039700
     20 H9           5.9200     5.5310    -3.8430 ho         1 RP3       0.384000
     21 H10          3.3120     5.6750    -2.0840 h2         1 RP3       0.033700
     22 H11          3.6960     6.5930    -0.1290 ho         1 RP3       0.402000
@<TRIPOS>BOND
     1    13    12 1
     2    11    10 1
     3    10    12 1
     4    10     9 1
     5    12     8 1
     6     9     7 1
     7     8     7 1
     8     7     6 1
     9     6     5 1
    10     4     2 1
    11     5     2 1
    12     2     1 1
    13     2     3 1
    14     6    14 1
    15     6    15 1
    16     7    16 1
    17     9    17 1
    18     9    18 1
    19    10    19 1
    20    11    20 1
    21    12    21 1
    22    13    22 1
@<TRIPOS>SUBSTRUCTURE
     1 RP3         1 TEMP              0 ****  ****    0 ROOT
