@<TRIPOS>MOLECULE
molecule
   42    44     1     0     0
SMALL
bcc


@<TRIPOS>ATOM
      1 O3           0.0000     0.0000     0.0000 o          1 RP4      -0.827800
      2 C2           1.2090     0.0000     0.0000 c          1 RP4       0.868600
      3 O1           1.8800     0.0000    -1.1630 o          1 RP4      -0.827800
      4 C4           1.9630     0.0000     1.3050 c3         1 RP4       0.074000
      5 O5           3.1530     0.7790     1.1640 oh         1 RP4      -0.623800
      6 C12          1.0830     0.6100     2.3980 c3         1 RP4      -0.086400
      7 C10          1.7570     0.3690     3.7550 c3         1 RP4       0.116100
      8 O11          1.0510     1.0790     4.7750 oh         1 RP4      -0.626800
      9 C8           1.7260    -1.1310     4.0580 c3         1 RP4       0.202300
     10 O9           2.5520    -1.4080     5.1900 oh         1 RP4      -0.615800
     11 C7           2.2280    -1.9060     2.8720 ce         1 RP4      -0.129400
     12 C6           2.3300    -1.4100     1.6630 c2         1 RP4      -0.059200
     13 C13          2.6360    -3.3110     3.0850 ca         1 RP4      -0.011800
     14 C25          3.7280    -3.6080     3.9010 ca         1 RP4      -0.105000
     15 C24          4.1060    -4.9210     4.0980 ca         1 RP4      -0.137000
     16 C23          3.4070    -5.9450     3.4890 ca         1 RP4      -0.130000
     17 C15          2.3160    -5.6600     2.6750 ca         1 RP4       0.020900
     18 C14          1.9260    -4.3440     2.4750 ca         1 RP4      -0.127000
     19 S16          1.4280    -6.9700     1.9020 ss         1 RP4      -0.247800
     20 C17          0.1070    -6.0580     1.1760 ca         1 RP4      -0.012100
     21 C22          0.1970    -5.6350    -0.1450 ca         1 RP4      -0.081500
     22 C21         -0.8400    -4.9200    -0.7120 ca         1 RP4      -0.136000
     23 C20         -1.9670    -4.6260     0.0340 ca         1 RP4      -0.092000
     24 C19         -2.0590    -5.0450     1.3500 ca         1 RP4      -0.136000
     25 C18         -1.0290    -5.7640     1.9200 ca         1 RP4      -0.081500
     26 H5           3.1290     1.2450     0.3450 ho         1 RP4       0.424000
     27 H121         0.1090     0.1370     2.3870 hc         1 RP4       0.064200
     28 H122         0.9790     1.6750     2.2280 hc         1 RP4       0.064200
     29 H10          2.7850     0.7080     3.7140 h1         1 RP4       0.058700
     30 H11          1.5650     1.8180     5.0570 ho         1 RP4       0.393000
     31 H8           0.7070    -1.4290     4.2720 h1         1 RP4       0.045700
     32 H9           2.0220    -1.4200     5.9700 ho         1 RP4       0.394000
     33 H6           2.7030    -2.0550     0.8770 ha         1 RP4       0.142000
     34 H25          4.2790    -2.8080     4.3800 ha         1 RP4       0.149000
     35 H24          4.9550    -5.1480     4.7320 ha         1 RP4       0.118000
     36 H23          3.7100    -6.9740     3.6460 ha         1 RP4       0.121000
     37 H14          1.0770    -4.1200     1.8410 ha         1 RP4       0.156000
     38 H22          1.0790    -5.8660    -0.7300 ha         1 RP4       0.140000
     39 H21         -0.7710    -4.5900    -1.7410 ha         1 RP4       0.134500
     40 H20         -2.7780    -4.0630    -0.4120 ha         1 RP4       0.134000
     41 H19         -2.9440    -4.8130     1.9300 ha         1 RP4       0.134500
     42 H18         -1.1020    -6.0910     2.9500 ha         1 RP4       0.140000
@<TRIPOS>BOND
     1     1     2 1
     2     2     3 1
     3     2     4 1
     4     4     5 1
     5     4     6 1
     6     4    12 1
     7     5    26 1
     8     6     7 1
     9     6    27 1
    10     6    28 1
    11     7     8 1
    12     7     9 1
    13     7    29 1
    14     8    30 1
    15     9    10 1
    16     9    11 1
    17     9    31 1
    18    10    32 1
    19    11    12 2
    20    11    13 1
    21    12    33 1
    22    13    14 ar
    23    13    18 ar
    24    14    15 ar
    25    14    34 1
    26    15    16 ar
    27    15    35 1
    28    16    17 ar
    29    16    36 1
    30    17    18 ar
    31    17    19 1
    32    18    37 1
    33    19    20 1
    34    20    21 ar
    35    20    25 ar
    36    21    22 ar
    37    21    38 1
    38    22    23 ar
    39    22    39 1
    40    23    24 ar
    41    23    40 1
    42    24    25 ar
    43    24    41 1
    44    25    42 1
@<TRIPOS>SUBSTRUCTURE
     1 RP4         1 TEMP              0 ****  ****    0 ROOT
