@<TRIPOS>MOLECULE
RP4
   42    44     1     0     0
SMALL
bcc


@<TRIPOS>ATOM
      1 O3         -0.6770    0.2540    1.3410 o         1 RP4     -0.813800
      2 C2          0.3810    0.1640    0.6730 c         1 RP4      0.906600
      3 O1          0.4660    0.0800   -0.5840 o         1 RP4     -0.813800
      4 C4          1.7630    0.1500    1.4390 c3        1 RP4      0.039000
      5 O5          2.8050    0.5770    0.5650 oh        1 RP4     -0.629800
      6 C12         1.7160    1.1160    2.6180 c3        1 RP4     -0.096400
      7 C10         2.6850    0.7160    3.7140 c3        1 RP4      0.103100
      8 O11         2.6540    1.6150    4.8160 oh        1 RP4     -0.625800
      9 C8          2.3730   -0.7050    4.2300 c3        1 RP4      0.171300
     10 O9          3.3500   -1.0950    5.1920 oh        1 RP4     -0.614800
     11 C7          2.3270   -1.6810    3.0930 ce        1 RP4     -0.126400
     12 C6          2.0420   -1.2630    1.8460 c2        1 RP4     -0.077200
     13 C13         2.5180   -3.1060    3.3650 ca        1 RP4     -0.007800
     14 C25         3.6720   -3.5880    3.9950 ca        1 RP4     -0.095000
     15 C24         3.8490   -4.9590    4.1780 ca        1 RP4     -0.144000
     16 C23         2.8910   -5.8600    3.7250 ca        1 RP4     -0.121000
     17 C15         1.7220   -5.3920    3.1110 ca        1 RP4     -0.037100
     18 C14         1.5360   -4.0190    2.9460 ca        1 RP4     -0.111000
     19 S16         0.5810   -6.5940    2.7200 ss        1 RP4     -0.138800
     20 C17        -0.2570   -6.1370    1.3160 ca        1 RP4     -0.012100
     21 C22         0.1430   -5.1760    0.3830 ca        1 RP4     -0.125000
     22 C21        -0.6360   -4.9200   -0.7450 ca        1 RP4     -0.115500
     23 C20        -1.8100   -5.6380   -0.9650 ca        1 RP4     -0.139000
     24 C19        -2.2070   -6.6120   -0.0460 ca        1 RP4     -0.115500
     25 C18        -1.4430   -6.8540    1.0900 ca        1 RP4     -0.125000
     26 H5          2.4590    0.5050   -0.3410 ho        1 RP4      0.429000
     27 H121        1.9680    2.1460    2.2600 hc        1 RP4      0.068200
     28 H122        0.6650    1.1270    3.0170 hc        1 RP4      0.068200
     29 H10         3.7480    0.7610    3.3470 h1        1 RP4      0.088700
     30 H11         1.7270    1.7920    5.0130 ho        1 RP4      0.397000
     31 H8          1.3670   -0.7010    4.7440 h1        1 RP4      0.040700
     32 H9          3.5400   -0.3040    5.7140 ho        1 RP4      0.406000
     33 H6          1.9850   -1.9820    1.0110 ha        1 RP4      0.129000
     34 H25         4.4330   -2.8750    4.3490 ha        1 RP4      0.155000
     35 H24         4.7570   -5.3310    4.6750 ha        1 RP4      0.120000
     36 H23         3.0460   -6.9430    3.8480 ha        1 RP4      0.127000
     37 H14         0.6110   -3.6320    2.4860 ha        1 RP4      0.158000
     38 H22         1.0750   -4.6070    0.5360 ha        1 RP4      0.140000
     39 H21        -0.3240   -4.1360   -1.4530 ha        1 RP4      0.135000
     40 H20        -2.4250   -5.4310   -1.8510 ha        1 RP4      0.127000
     41 H19        -3.1330   -7.1800   -0.2130 ha        1 RP4      0.135000
     42 H18        -1.7680   -7.6080    1.8240 ha        1 RP4      0.140000
@<TRIPOS>BOND
     1    1    2 1   
     2    2    3 1   
     3    2    4 1   
     4    4    5 1   
     5    4    6 1   
     6    4   12 1   
     7    5   26 1   
     8    6    7 1   
     9    6   27 1   
    10    6   28 1   
    11    7    8 1   
    12    7    9 1   
    13    7   29 1   
    14    8   30 1   
    15    9   10 1   
    16    9   11 1   
    17    9   31 1   
    18   10   32 1   
    19   11   12 2   
    20   11   13 1   
    21   12   33 1   
    22   13   14 ar  
    23   13   18 ar  
    24   14   15 ar  
    25   14   34 1   
    26   15   16 ar  
    27   15   35 1   
    28   16   17 ar  
    29   16   36 1   
    30   17   18 ar  
    31   17   19 1   
    32   18   37 1   
    33   19   20 1   
    34   20   21 ar  
    35   20   25 ar  
    36   21   22 ar  
    37   21   38 1   
    38   22   23 ar  
    39   22   39 1   
    40   23   24 ar  
    41   23   40 1   
    42   24   25 ar  
    43   24   41 1   
    44   25   42 1   
@<TRIPOS>SUBSTRUCTURE
     1 RP4         1 TEMP              0 ****  ****    0 ROOT
