@<TRIPOS>MOLECULE
molecule
   23    23     1     0     0
SMALL
bcc


@<TRIPOS>ATOM
      1 C1'          0.0000     0.0000     0.0000 c3         1 RP5       0.308900
      2 O1'          1.4440     0.0000     0.0000 os         1 RP5      -0.381600
      3 C2'         -0.3950    -0.9700     1.1350 c3         1 RP5       0.092100
      4 O2'         -1.5520    -0.4900     1.8250 oh         1 RP5      -0.588800
      5 C3'          0.8330    -0.9700     2.0730 c3         1 RP5       0.100100
      6 O3'          0.4720    -0.4890     3.3700 oh         1 RP5      -0.583800
      7 C4'          1.8250     0.0000     1.3930 c3         1 RP5       0.126100
      8 C5'          3.2590    -0.5060     1.5540 c3         1 RP5       0.228400
      9 O5'          4.1630     0.4260     0.9560 os         1 RP5      -0.564200
     10 P'           5.7580     0.2120     0.9390 p5         1 RP5       1.176900
     11 O1X          6.2450     0.0110     2.3230 o          1 RP5      -0.908167
     12 O2X          6.1180    -1.0830     0.0520 o          1 RP5      -0.908167
     13 O3X          6.4670     1.5110     0.3050 o          1 RP5      -0.908167
     14 O1          -0.4970    -0.4720    -1.2540 oh         1 RP5      -0.614800
     15 H1'         -0.3750     0.9950     0.2100 h2         1 RP5       0.040700
     16 H2'         -0.5670    -1.9630     0.7390 h1         1 RP5       0.046700
     17 HA          -2.2640    -1.0950     1.7020 ho         1 RP5       0.380000
     18 H3'          1.2600    -1.9640     2.1350 h1         1 RP5       0.052700
     19 HB           0.5680    -1.1840     4.0000 ho         1 RP5       0.386000
     20 H4'          1.7210     0.9950     1.8100 h1         1 RP5       0.068700
     21 H5'1         3.3590    -1.4690     1.0670 h1         1 RP5       0.022200
     22 H5'2         3.4910    -0.6080     2.6070 h1         1 RP5       0.022200
     23 H1          -0.4660     0.2250    -1.8880 ho         1 RP5       0.406000
@<TRIPOS>BOND
     1     1     2 1
     2     1     3 1
     3     1    14 1
     4     1    15 1
     5     2     7 1
     6     3     4 1
     7     3     5 1
     8     3    16 1
     9     4    17 1
    10     5     6 1
    11     5     7 1
    12     5    18 1
    13     6    19 1
    14     7     8 1
    15     7    20 1
    16     8     9 1
    17     8    21 1
    18     8    22 1
    19     9    10 1
    20    10    11 1
    21    10    12 1
    22    10    13 1
    23    14    23 1
@<TRIPOS>SUBSTRUCTURE
     1 RP5         1 TEMP              0 ****  ****    0 ROOT
