@<TRIPOS>MOLECULE
RP5
   23    23     1     0     0
SMALL
bcc


@<TRIPOS>ATOM
      1 C1'         0.1080   -0.5620    0.2980 c3        1 RP5      0.349900
      2 O1'         0.5710    0.7870    0.1740 os        1 RP5     -0.490600
      3 C2'         0.6930   -1.1360    1.6090 c3        1 RP5      0.031100
      4 O2'        -0.3740   -1.6290    2.4040 oh        1 RP5     -0.635800
      5 C3'         1.4040    0.0580    2.2860 c3        1 RP5      0.053100
      6 O3'         0.6160    0.6230    3.3160 oh        1 RP5     -0.616800
      7 C4'         1.6400    1.0290    1.1170 c3        1 RP5      0.070100
      8 C5'         3.0020    0.8070    0.4090 c3        1 RP5      0.213400
      9 O5'         3.9590    0.2470    1.2090 os        1 RP5     -0.573200
     10 P'          4.2190   -1.4670    1.0840 p5        1 RP5      1.329900
     11 O1X         3.7450   -1.8670    2.4560 o         1 RP5     -0.926833
     12 O2X         3.2290   -1.8610    0.0080 o         1 RP5     -0.926833
     13 O3X         5.6730   -1.5860    0.7490 o         1 RP5     -0.926833
     14 O1          0.5170   -1.2160   -0.8600 oh        1 RP5     -0.669800
     15 H1'        -1.0150   -0.5330    0.2810 h2        1 RP5      0.044700
     16 H2'         1.4800   -1.9290    1.3900 h1        1 RP5      0.167700
     17 HA          0.0260   -1.8230    3.2600 ho        1 RP5      0.407000
     18 H3'         2.3890   -0.2850    2.7510 h1        1 RP5      0.201700
     19 HB         -0.2570    0.7780    2.9350 ho        1 RP5      0.372000
     20 H4'         1.5090    2.0940    1.4350 h1        1 RP5      0.027700
     21 H5'1        2.8160    0.1760   -0.5080 h1        1 RP5      0.000200
     22 H5'2        3.3560    1.8290    0.0770 h1        1 RP5      0.000200
     23 H1          1.4760   -1.4270   -0.7820 ho        1 RP5      0.498000
@<TRIPOS>BOND
     1    1    2 1   
     2    1    3 1   
     3    1   14 1   
     4    1   15 1   
     5    2    7 1   
     6    3    4 1   
     7    3    5 1   
     8    3   16 1   
     9    4   17 1   
    10    5    6 1   
    11    5    7 1   
    12    5   18 1   
    13    6   19 1   
    14    7    8 1   
    15    7   20 1   
    16    8    9 1   
    17    8   21 1   
    18    8   22 1   
    19    9   10 1   
    20   10   11 1   
    21   10   12 1   
    22   10   13 1   
    23   14   23 1   
@<TRIPOS>SUBSTRUCTURE
     1 RP5         1 TEMP              0 ****  ****    0 ROOT
