@<TRIPOS>MOLECULE
molecule
   43    43     1     0     0
SMALL
bcc


@<TRIPOS>ATOM
      1 CAA          0.0000     0.0000     0.0000 c2         1 RP6      -0.296000
      2 CAB          2.2800    -6.6500     3.5930 c3         1 RP6      -0.175100
      3 OAC          2.6520    -4.4610     4.3920 o          1 RP6      -0.579100
      4 OAD          4.6450     0.6740    -0.6560 o          1 RP6      -0.812800
      5 OAF          5.0820     1.2890     1.4330 o          1 RP6      -0.812800
      6 OAG          6.5050    -4.3070    -1.0230 oh         1 RP6      -0.614800
      7 OAH          1.6760    -2.3430     2.9260 oh         1 RP6      -0.576800
      8 OAI          6.4340    -3.9540     2.6240 oh         1 RP6      -0.574800
      9 CAJ          1.3100     0.0000     0.0000 c2         1 RP6      -0.116200
     10 CAK          8.1940    -4.9570     0.5790 c3         1 RP6       0.108400
     11 CAL          2.0630     0.0000     1.3040 c3         1 RP6       0.012000
     12 NAM          3.2550    -4.7910     2.2840 ns         1 RP6      -0.588900
     13 OAN          5.2090    -1.9520     0.9570 os         1 RP6      -0.296900
     14 CAO          2.7420    -5.2210     3.4520 c          1 RP6       0.644100
     15 CAQ          3.0210    -1.1640     1.3320 c2         1 RP6      -0.296400
     16 CAR          4.2760    -0.9690     0.9580 ce         1 RP6       0.102900
     17 CAS          7.0190    -4.0230     0.2810 c3         1 RP6       0.131100
     18 CAT          2.5160    -2.5080     1.7830 c3         1 RP6       0.200300
     19 CAU          5.9190    -4.2380     1.3220 c3         1 RP6       0.161100
     20 CAV          3.7050    -3.4040     2.1480 c3         1 RP6       0.067700
     21 CAW          4.7450    -3.3040     1.0220 c3         1 RP6       0.139100
     22 HAA         -0.5420     0.0000    -0.9380 ha         1 RP6       0.093500
     23 HAAA        -0.5420     0.0000     0.9380 ha         1 RP6       0.093500
     24 HAB          1.6810    -6.9210     2.7320 hc         1 RP6       0.051033
     25 HABA         1.6860    -6.7500     4.4930 hc         1 RP6       0.051033
     26 HABB         3.1420    -7.3040     3.6540 hc         1 RP6       0.051033
     27 HOAE        10.0140    -5.2060    -0.0950 ho         1 RP6       0.394000
     28 HOAG         6.9480    -3.7710    -1.6590 ho         1 RP6       0.422000
     29 HOAH         0.8020    -2.6290     2.7180 ho         1 RP6       0.383000
     30 H10          6.6290    -4.7620     3.0680 ho         1 RP6       0.389000
     31 HAJ          1.8510     0.0000    -0.9380 ha         1 RP6       0.139000
     32 HAK          7.8770    -5.9860     0.4530 h1         1 RP6       0.022700
     33 HAKA         8.5270    -4.8040     1.5980 h1         1 RP6       0.022700
     34 HAL          1.3630    -0.0890     2.1260 hc         1 RP6       0.071200
     35 H15          2.6180     0.9260     1.4010 hc         1 RP6       0.071200
     36 HNAM         3.2900    -5.4070     1.4960 hn         1 RP6       0.299500
     37 HAS          7.3570    -2.9950     0.3190 h1         1 RP6       0.095700
     38 HAT          1.9530    -2.9690     0.9790 h1         1 RP6       0.016700
     39 H19          5.5810    -5.2660     1.2830 h1         1 RP6       0.030700
     40 HAV          4.1440    -3.0640     3.0780 h1         1 RP6       0.125700
     41 HAW          4.2870    -3.5760     0.0790 h1         1 RP6       0.059700
     42 CAP          4.6780     0.3810     0.5230 c          1 RP6       0.898800
     43 OAE          9.2680    -4.6760    -0.3210 oh         1 RP6      -0.607800
@<TRIPOS>BOND
     1     1     9 2
     2     2    14 1
     3     3    14 2
     4     4    42 1
     5    43    10 1
     6     5    42 1
     7     6    17 1
     8     7    18 1
     9     8    19 1
    10     9    11 1
    11    10    17 1
    12    11    15 1
    13    12    14 1
    14    12    20 1
    15    13    16 1
    16    13    21 1
    17    42    16 1
    18    15    16 2
    19    15    18 1
    20    17    19 1
    21    18    20 1
    22    19    21 1
    23    20    21 1
    24     1    22 1
    25     1    23 1
    26     2    24 1
    27     2    25 1
    28     2    26 1
    29    43    27 1
    30     6    28 1
    31     7    29 1
    32     8    30 1
    33     9    31 1
    34    10    32 1
    35    10    33 1
    36    11    34 1
    37    11    35 1
    38    12    36 1
    39    17    37 1
    40    18    38 1
    41    19    39 1
    42    20    40 1
    43    21    41 1
@<TRIPOS>SUBSTRUCTURE
     1 RP6         1 TEMP              0 ****  ****    0 ROOT
