@<TRIPOS>MOLECULE
RP8
   25    26     1     0     0
SMALL
bcc


@<TRIPOS>ATOM
      1 C1         -0.0320   -0.0170   -0.0100 ca        1 RP8      0.458600
      2 C2          1.4060   -0.0280   -0.0350 ca        1 RP8     -0.120300
      3 C3          2.1230   -0.0220    1.1340 ca        1 RP8     -0.128000
      4 C4          1.4670   -0.0220    2.3850 ca        1 RP8     -0.081000
      5 C5          0.0880   -0.0110    2.4480 ca        1 RP8     -0.170300
      6 C6         -0.6930    0.0080    1.2600 ca        1 RP8     -0.191300
      7 N7         -0.7020   -0.0230   -1.2040 nb        1 RP8     -0.729000
      8 C8         -2.0550    0.0020   -1.1880 ca        1 RP8      0.690200
      9 C9         -2.8010    0.0780    0.0640 ca        1 RP8     -0.242300
     10 N10        -2.7550   -0.0990   -2.3720 nh        1 RP8     -0.944500
     11 C11        -2.1160    0.0760    1.2450 ca        1 RP8     -0.105000
     12 C12        -0.5760   -0.0040    3.7810 c3        1 RP8      0.175100
     13 N13        -1.1510   -1.3590    4.0870 n4        1 RP8     -0.846600
     14 H2          1.9210   -0.0360   -1.0120 ha        1 RP8      0.177000
     15 H3          3.2250   -0.0180    1.1120 ha        1 RP8      0.163000
     16 H4          2.0780   -0.0180    3.3020 ha        1 RP8      0.142000
     17 H121        0.1580    0.2450    4.6020 hx        1 RP8      0.111200
     18 H122       -1.4220    0.7420    3.8140 hx        1 RP8      0.111200
     19 H11        -2.6740    0.1640    2.1890 ha        1 RP8      0.110000
     20 H9         -3.8990    0.1410    0.0400 ha        1 RP8      0.158000
     21 H101       -3.7090    0.1700   -2.3670 hn        1 RP8      0.444300
     22 H102       -2.2650   -0.0480   -3.2350 hn        1 RP8      0.444300
     23 H13        -1.8050   -1.6250    3.3410 hn        1 RP8      0.457800
     24 H1         -0.3990   -2.0550    4.1170 hn        1 RP8      0.457800
     25 H133       -1.6400   -1.3490    4.9840 hn        1 RP8      0.457800
@<TRIPOS>BOND
     1    1    2 ar  
     2    1    6 ar  
     3    1    7 ar  
     4    2    3 ar  
     5    2   14 1   
     6    3    4 ar  
     7    3   15 1   
     8    4    5 ar  
     9    4   16 1   
    10    5    6 ar  
    11    5   12 1   
    12    6   11 ar  
    13    7    8 ar  
    14    8    9 ar  
    15    8   10 1   
    16    9   11 ar  
    17    9   20 1   
    18   10   21 1   
    19   10   22 1   
    20   11   19 1   
    21   12   13 1   
    22   12   17 1   
    23   12   18 1   
    24   13   23 1   
    25   13   24 1   
    26   13   25 1   
@<TRIPOS>SUBSTRUCTURE
     1 RP8         1 TEMP              0 ****  ****    0 ROOT
