@<TRIPOS>MOLECULE
RPB
   42    45     1     0     0
SMALL
bcc


@<TRIPOS>ATOM
      1 O1           0.0000     0.0000     0.0000 o          1 RPB      -0.692500
      2 C7           1.2170     0.0000     0.0000 c          1 RPB       0.632100
      3 N1           1.8300     0.0000     1.1990 ns         1 RPB      -0.173900
      4 C8           3.2640     0.0600     1.3380 c3         1 RPB       0.038000
      5 C9           3.9720    -1.1800     0.8520 c3         1 RPB       0.031800
      6 C10          4.0710    -1.2320    -0.6310 cc         1 RPB      -0.141400
      7 C5           3.1170    -0.6500    -1.5100 ca         1 RPB      -0.080800
      8 C4           1.8820    -0.0050    -1.3020 ca         1 RPB      -0.064600
      9 C3           1.2780     0.6340    -2.3880 ca         1 RPB      -0.090000
     10 C2           1.8350     0.5470    -3.6510 ca         1 RPB       0.104900
     11 F1           1.2440     1.1870    -4.6840 f          1 RPB      -0.128900
     12 C1           2.9880    -0.1840    -3.8710 ca         1 RPB      -0.117000
     13 C6           3.6330    -0.7880    -2.8100 ca         1 RPB      -0.215200
     14 N2           4.7670    -1.5680    -2.7200 na         1 RPB       0.374600
     15 C11          5.0290    -1.8140    -1.3920 cd         1 RPB      -0.170300
     16 C12          6.1760    -2.5910    -0.8760 ca         1 RPB      -0.024800
     17 C14          6.5250    -3.8050    -1.4700 ca         1 RPB      -0.098000
     18 C15          7.5960    -4.5250    -0.9840 ca         1 RPB      -0.081500
     19 C13          6.9200    -2.1110     0.2030 ca         1 RPB      -0.098000
     20 C17          7.9880    -2.8410     0.6810 ca         1 RPB      -0.081500
     21 C16          8.3240    -4.0470     0.0900 ca         1 RPB      -0.090300
     22 C18          9.4930    -4.8400     0.6160 c3         1 RPB       0.199100
     23 N3          10.7180    -4.4280    -0.0840 n7         1 RPB      -0.582200
     24 C19         11.8810    -5.1820     0.4040 c3         1 RPB       0.178100
     25 H1           1.2680    -0.0430     2.0260 hn         1 RPB       0.183500
     26 H81C         3.5030     0.2040     2.3850 h1         1 RPB       0.021200
     27 H82C         3.6300     0.9090     0.7740 h1         1 RPB       0.021200
     28 H91C         4.9720    -1.1980     1.2700 hc         1 RPB       0.030200
     29 H92C         3.4270    -2.0510     1.1960 hc         1 RPB       0.030200
     30 H3           0.3680     1.2030    -2.2390 ha         1 RPB       0.138000
     31 HA           3.4110    -0.2420    -4.8670 ha         1 RPB       0.116000
     32 H2           5.3100    -1.8980    -3.4920 hn         1 RPB       0.121700
     33 H14          5.9550    -4.1810    -2.3110 ha         1 RPB       0.111000
     34 H13          6.6570    -1.1670     0.6660 ha         1 RPB       0.111000
     35 H15          7.8660    -5.4690    -1.4430 ha         1 RPB       0.108500
     36 H17          8.5650    -2.4710     1.5200 ha         1 RPB       0.108500
     37 H181         9.3190    -5.8950     0.4480 h1         1 RPB       0.010700
     38 H182         9.6050    -4.6560     1.6780 h1         1 RPB       0.010700
     39 HB          10.6080    -4.5830    -1.0660 hn         1 RPB       0.252800
     40 H191        12.7700    -4.8560    -0.1230 h1         1 RPB      -0.000967
     41 H192        11.7260    -6.2400     0.2290 h1         1 RPB      -0.000967
     42 H193        12.0060    -5.0060     1.4660 h1         1 RPB      -0.000967
@<TRIPOS>BOND
     1     1     2 2   
     2     2     3 1   
     3     2     8 1   
     4     3     4 1   
     5     3    25 1   
     6     4     5 1   
     7     4    26 1   
     8     4    27 1   
     9     5     6 1   
    10     5    28 1   
    11     5    29 1   
    12     6     7 1   
    13     6    15 2   
    14     7     8 ar  
    15     7    13 ar  
    16     8     9 ar  
    17     9    10 ar  
    18     9    30 1   
    19    10    11 1   
    20    10    12 ar  
    21    12    13 ar  
    22    12    31 1   
    23    13    14 1   
    24    14    15 1   
    25    14    32 1   
    26    15    16 1   
    27    16    17 ar  
    28    16    19 ar  
    29    17    18 ar  
    30    17    33 1   
    31    18    21 ar  
    32    18    35 1   
    33    19    20 ar  
    34    19    34 1   
    35    20    21 ar  
    36    20    36 1   
    37    21    22 1   
    38    22    23 1   
    39    22    37 1   
    40    22    38 1   
    41    23    24 1   
    42    23    39 1   
    43    24    40 1   
    44    24    41 1   
    45    24    42 1   
@<TRIPOS>SUBSTRUCTURE
     1 RPB         1 TEMP              0 ****  ****    0 ROOT
