@<TRIPOS>MOLECULE
molecule
   49    50     1     0     0
SMALL
bcc


@<TRIPOS>ATOM
      1 O1P          0.0000     0.0000     0.0000 o          1 RPD      -0.914500
      2 O2P          2.0160     1.3140    -0.7610 o          1 RPD      -0.914500
      3 O3P          2.0160    -1.3140    -0.7580 o          1 RPD      -0.914500
      4 P            1.4790     0.0000     0.0000 p5         1 RPD       1.160900
      5 O5'          2.0170     0.0000     1.5170 os         1 RPD      -0.524200
      6 C5'          1.5110    -1.1840     2.1350 c3         1 RPD       0.162400
      7 C4'          1.9850    -1.2460     3.5880 c3         1 RPD       0.132100
      8 O4'          1.4880    -0.1170     4.3260 os         1 RPD      -0.340600
      9 C3'          1.3920    -2.4880     4.2990 c3         1 RPD       0.090100
     10 O3'          2.2160    -3.6380     4.1000 oh         1 RPD      -0.578800
     11 C2'          1.4240    -2.0250     5.7820 c3         1 RPD       0.092100
     12 O2'          2.7040    -2.2720     6.3660 oh         1 RPD      -0.557800
     13 C1'          1.1610    -0.5160     5.6530 c3         1 RPD       0.199200
     14 N1          -0.2320    -0.2040     5.9810 ns         1 RPD      -0.595900
     15 C2          -0.1950     0.6260     7.0410 c          1 RPD       0.823500
     16 O2          -1.1850     1.0850     7.5750 o          1 RPD      -0.670500
     17 N3           1.0560     0.8890     7.4390 n          1 RPD      -0.498400
     18 C4           1.9650     0.2550     6.6690 c          1 RPD       0.720500
     19 O4           3.1720     0.2940     6.7750 o          1 RPD      -0.556500
     20 C5A          1.3940     1.7600     8.5670 c3         1 RPD       0.116000
     21 C6A          1.4690     0.9290     9.8490 c3         1 RPD      -0.101400
     22 C7A          1.8220     1.8380    11.0270 c3         1 RPD      -0.082400
     23 C8A          1.9850     0.9950    12.2930 c3         1 RPD       0.039500
     24 C9A          0.6620     0.3790    12.6590 c          1 RPD       0.906600
     25 OJA         -0.1180     0.9620    13.5820 o          1 RPD      -0.844800
     26 OKA          0.3000    -0.6420    12.1220 o          1 RPD      -0.844800
     27 NAA          2.4500     1.8480    13.3940 n3         1 RPD      -0.400100
     28 OAA          1.5990     3.0380    13.3920 oh         1 RPD      -0.430300
     29 CBA          3.8040     2.2960    13.0390 c3         1 RPD       0.306600
     30 OBA          4.6550     1.1610    12.8820 oh         1 RPD      -0.593800
     31 H5'1         0.4280    -1.1700     2.1090 h1         1 RPD       0.047700
     32 H5'2         1.8730    -2.0540     1.5990 h1         1 RPD       0.047700
     33 H4           3.0670    -1.2730     3.6340 h1         1 RPD       0.082700
     34 H3           0.3750    -2.6690     3.9730 h1         1 RPD       0.052700
     35 HO3'         1.6750    -4.3790     3.8830 ho         1 RPD       0.385000
     36 H2           0.6350    -2.5030     6.3500 h1         1 RPD       0.039700
     37 HO2'         2.6220    -2.9300     7.0370 ho         1 RPD       0.392000
     38 HN1         -1.0490    -0.5330     5.5050 hn         1 RPD       0.362500
     39 H51          2.3530     2.2310     8.3860 h1         1 RPD       0.056700
     40 H52          0.6320     2.5230     8.6750 h1         1 RPD       0.056700
     41 H61          0.5100     0.4580    10.0310 hc         1 RPD       0.071200
     42 H62          2.2310     0.1660     9.7410 hc         1 RPD       0.071200
     43 H71          2.7490     2.3570    10.8170 hc         1 RPD       0.035700
     44 H72          1.0290     2.5610    11.1750 hc         1 RPD       0.035700
     45 H81          2.7110     0.2110    12.1130 h1         1 RPD       0.078700
     46 H10          1.5710     3.4060    14.2590 ho         1 RPD       0.385000
     47 H111         4.1910     2.9320    13.8250 h2         1 RPD       0.014200
     48 H112         3.7680     2.8510    12.1100 h2         1 RPD       0.014200
     49 H11          5.5000     1.3480    13.2570 ho         1 RPD       0.383000
@<TRIPOS>BOND
     1     1     4 1
     2     2     4 1
     3     3     4 1
     4     4     5 1
     5     5     6 1
     6     6     7 1
     7     6    31 1
     8     6    32 1
     9     7     8 1
    10     7     9 1
    11     7    33 1
    12     8    13 1
    13     9    10 1
    14     9    11 1
    15     9    34 1
    16    10    35 1
    17    11    12 1
    18    11    13 1
    19    11    36 1
    20    12    37 1
    21    13    14 1
    22    13    18 1
    23    14    15 1
    24    14    38 1
    25    15    16 2
    26    15    17 1
    27    17    18 1
    28    17    20 1
    29    18    19 2
    30    20    21 1
    31    20    39 1
    32    20    40 1
    33    21    22 1
    34    21    41 1
    35    21    42 1
    36    22    23 1
    37    22    43 1
    38    22    44 1
    39    23    24 1
    40    23    27 1
    41    23    45 1
    42    24    25 1
    43    24    26 1
    44    27    28 1
    45    27    29 1
    46    28    46 1
    47    29    30 1
    48    29    47 1
    49    29    48 1
    50    30    49 1
@<TRIPOS>SUBSTRUCTURE
     1 RPD         1 TEMP              0 ****  ****    0 ROOT
