@<TRIPOS>MOLECULE
RPF
   76    80     1     0     0
SMALL
bcc


@<TRIPOS>ATOM
      1 C1           0.0000     0.0000     0.0000 c3         1 RPF       0.217700
      2 O1           1.4290     0.0000     0.0000 os         1 RPF      -0.287900
      3 C2           1.8220     0.0000     1.3010 ca         1 RPF       0.136100
      4 C3           3.1720    -0.0050     1.6190 ca         1 RPF      -0.143300
      5 C4           4.2050    -0.0040     0.5230 c3         1 RPF       0.270700
      6 O2           5.5120     0.0040     1.1000 os         1 RPF      -0.399600
      7 C5           0.8730    -0.0010     2.3130 ca         1 RPF      -0.221000
      8 C6           1.2740    -0.0010     3.6350 ca         1 RPF      -0.058000
      9 C7           2.6210     0.0010     3.9500 ca         1 RPF      -0.141000
     10 C8           3.5680     0.0010     2.9430 ca         1 RPF      -0.045000
     11 C9          14.8730    -3.5630    -2.9030 ca         1 RPF       0.158100
     12 C10         15.9260    -3.8550    -2.0510 ca         1 RPF      -0.189000
     13 C11         15.8970    -5.0110    -1.2810 ca         1 RPF       0.075600
     14 C12         14.8190    -5.8780    -1.3680 ca         1 RPF      -0.175300
     15 C13         13.7720    -5.5840    -2.2280 ca         1 RPF      -0.024000
     16 C14         13.7980    -4.4360    -2.9920 ca         1 RPF      -0.255000
     17 C20         13.6560    -1.1630    -5.2940 c3         1 RPF       0.018700
     18 C21         14.9150    -1.1100    -6.1610 c3         1 RPF       0.118800
     19 N2          14.9640     0.1880    -6.8510 n7         1 RPF      -0.572200
     20 C22         15.3030     1.1890    -5.8340 c3         1 RPF       0.071800
     21 C23         14.3410     1.1100    -4.6830 c          1 RPF       0.620500
     22 N3          13.5990     0.0220    -4.4390 n          1 RPF       0.003000
     23 C24         13.6930    -2.4190    -4.4220 c3         1 RPF       0.151400
     24 O6          14.8980    -2.4310    -3.6540 os         1 RPF      -0.281900
     25 C25         13.2580     0.0290    -2.0470 ca         1 RPF      -0.043000
     26 C26         12.7370     0.0210    -3.3350 ca         1 RPF      -0.120400
     27 C27         11.3620     0.0140    -3.5260 ca         1 RPF      -0.043000
     28 C28         10.5140     0.0090    -2.4370 ca         1 RPF      -0.179000
     29 C29         11.0340     0.0220    -1.1510 ca         1 RPF       0.142100
     30 C30         12.4090     0.0290    -0.9590 ca         1 RPF      -0.179000
     31 O7          10.1980     0.0210    -0.0790 os         1 RPF      -0.276900
     32 C31          8.8660     0.0140    -0.5940 c3         1 RPF       0.179400
     33 C32          7.8690     0.0130     0.5670 c3         1 RPF      -0.050400
     34 C33          6.4430     0.0040     0.0150 c3         1 RPF       0.206400
     35 C34         16.1500    -7.5430    -0.0750 c3         1 RPF      -0.034400
     36 C35         16.8170    -6.3340     0.5930 c3         1 RPF       0.145800
     37 N1          16.9700    -5.2860    -0.4260 nu         1 RPF      -0.401600
     38 C36         14.7530    -7.1380    -0.5460 c3         1 RPF       0.047900
     39 H1C1        -0.3610     0.8840     0.5110 h1         1 RPF       0.002700
     40 H1C2        -0.3610    -0.8850     0.5100 h1         1 RPF       0.002700
     41 H1C3        -0.3610     0.0010    -1.0210 h1         1 RPF       0.002700
     42 H4C1         4.0850    -0.8910    -0.0870 h1         1 RPF       0.004200
     43 H4C2         4.0770     0.8780    -0.0930 h1         1 RPF       0.004200
     44 H5          -0.1820    -0.0020     2.0670 ha         1 RPF       0.132000
     45 H6           0.5330    -0.0010     4.4250 ha         1 RPF       0.100000
     46 H7           2.9340     0.0030     4.9870 ha         1 RPF       0.106000
     47 H8           4.6220    -0.0000     3.1920 ha         1 RPF       0.123000
     48 H10         16.7680    -3.1770    -1.9790 ha         1 RPF       0.123000
     49 H13         12.9290    -6.2610    -2.3020 ha         1 RPF       0.101000
     50 H14         12.9730    -4.2110    -3.6570 ha         1 RPF       0.130000
     51 H20         12.7820    -1.1870    -5.9330 h1         1 RPF       0.042700
     52 H211        14.8840    -1.9080    -6.8930 h1         1 RPF       0.027200
     53 H212        15.7910    -1.2190    -5.5340 h1         1 RPF       0.027200
     54 H2          15.6800     0.1670    -7.5500 hn         1 RPF       0.261800
     55 H221        16.3080     1.0040    -5.4720 h1         1 RPF       0.034700
     56 H222        15.2520     2.1770    -6.2750 h1         1 RPF       0.034700
     57 H241        13.6580    -3.2980    -5.0530 h1         1 RPF       0.028700
     58 H242        12.8390    -2.4200    -3.7540 h1         1 RPF       0.028700
     59 H25         14.3310     0.0340    -1.8960 ha         1 RPF       0.112000
     60 H27         10.9550     0.0040    -4.5300 ha         1 RPF       0.112000
     61 H28          9.4410     0.0040    -2.5860 ha         1 RPF       0.125500
     62 H30         12.8150     0.0360     0.0450 ha         1 RPF       0.125500
     63 H311         8.7090     0.8960    -1.2030 h1         1 RPF       0.011200
     64 H312         8.7170    -0.8730    -1.1980 h1         1 RPF       0.011200
     65 H321         8.0180     0.9000     1.1710 hc         1 RPF       0.033700
     66 H322         8.0260    -0.8690     1.1760 hc         1 RPF       0.033700
     67 H331         6.2950    -0.8830    -0.5890 h1         1 RPF      -0.006300
     68 H332         6.2870     0.8860    -0.5950 h1         1 RPF      -0.006300
     69 H341        16.7410    -7.8580    -0.9260 hc         1 RPF       0.023700
     70 H342        16.0700    -8.3530     0.6400 hc         1 RPF       0.023700
     71 H351        17.7960    -6.6240     0.9540 h1         1 RPF       0.015200
     72 H352        16.1750    -5.9670     1.3850 h1         1 RPF       0.015200
     73 H1          17.2750    -4.4390     0.0110 hn         1 RPF       0.257800
     74 H361        14.3350    -7.9360    -1.1480 hc         1 RPF       0.017700
     75 H362        14.1210    -6.9670     0.3180 hc         1 RPF       0.017700
     76 O5          14.2380     2.0650    -3.9420 o          1 RPF      -0.679500
@<TRIPOS>BOND
     1     1     2 1   
     2     1    39 1   
     3     1    40 1   
     4     1    41 1   
     5     2     3 1   
     6     3     4 ar  
     7     3     7 ar  
     8     4     5 1   
     9     4    10 ar  
    10     5     6 1   
    11     5    42 1   
    12     5    43 1   
    13     6    34 1   
    14     7     8 ar  
    15     7    44 1   
    16     8     9 ar  
    17     8    45 1   
    18     9    10 ar  
    19     9    46 1   
    20    10    47 1   
    21    11    12 ar  
    22    11    16 ar  
    23    11    24 1   
    24    12    13 ar  
    25    12    48 1   
    26    13    14 ar  
    27    13    37 1   
    28    14    15 ar  
    29    14    38 1   
    30    15    16 ar  
    31    15    49 1   
    32    16    50 1   
    33    17    18 1   
    34    17    22 1   
    35    17    23 1   
    36    17    51 1   
    37    18    19 1   
    38    18    52 1   
    39    18    53 1   
    40    19    20 1   
    41    19    54 1   
    42    20    21 1   
    43    20    55 1   
    44    20    56 1   
    45    21    22 1   
    46    21    76 2   
    47    22    26 1   
    48    23    24 1   
    49    23    57 1   
    50    23    58 1   
    51    25    26 ar  
    52    25    30 ar  
    53    25    59 1   
    54    26    27 ar  
    55    27    28 ar  
    56    27    60 1   
    57    28    29 ar  
    58    28    61 1   
    59    29    30 ar  
    60    29    31 1   
    61    30    62 1   
    62    31    32 1   
    63    32    33 1   
    64    32    63 1   
    65    32    64 1   
    66    33    34 1   
    67    33    65 1   
    68    33    66 1   
    69    34    67 1   
    70    34    68 1   
    71    35    36 1   
    72    35    38 1   
    73    35    69 1   
    74    35    70 1   
    75    36    37 1   
    76    36    71 1   
    77    36    72 1   
    78    37    73 1   
    79    38    74 1   
    80    38    75 1   
@<TRIPOS>SUBSTRUCTURE
     1 RPF         1 TEMP              0 ****  ****    0 ROOT
