@<TRIPOS>MOLECULE
molecule
   55    55     1     0     0
SMALL
bcc


@<TRIPOS>ATOM
      1 O9           0.0000     0.0000     0.0000 o          1 RPG      -0.502100
      2 C9           1.2140     0.0000     0.0000 c          1 RPG       0.571300
      3 C10          2.0770     0.0000     1.1760 ce         1 RPG      -0.261200
      4 C11          3.3620    -0.0010     0.8570 c2         1 RPG      -0.105200
      5 C12          3.5350    -0.0030    -0.6420 c3         1 RPG      -0.024300
      6 C13          4.2780     1.2320    -1.0830 c2         1 RPG      -0.134200
      7 C14          5.4050     1.1190    -1.7400 c2         1 RPG      -0.206200
      8 C15          6.1480     2.3530    -2.1800 c3         1 RPG       0.183300
      9 C16          7.5830     2.3020    -1.6500 c3         1 RPG      -0.087400
     10 C17          8.3730     3.4900    -2.1990 c3         1 RPG      -0.084400
     11 C18          9.8070     3.4390    -1.6670 c3         1 RPG      -0.080400
     12 C19         10.5970     4.6280    -2.2160 c3         1 RPG      -0.084400
     13 C20         12.0320     4.5770    -1.6860 c3         1 RPG      -0.092100
     14 O15          5.4910     3.5130    -1.6660 oh         1 RPG      -0.605800
     15 C8           2.1090    -0.0080    -1.2210 c3         1 RPG      -0.173700
     16 C7           1.8750    -1.2680    -2.0570 c3         1 RPG      -0.064400
     17 C6           0.4990    -1.1900    -2.7220 c3         1 RPG      -0.091400
     18 C5           0.2650    -2.4500    -3.5590 c3         1 RPG      -0.080400
     19 C4          -1.1110    -2.3730    -4.2240 c3         1 RPG      -0.087400
     20 C3          -1.3440    -3.6320    -5.0600 c3         1 RPG      -0.063400
     21 C2          -2.7200    -3.5560    -5.7250 c3         1 RPG      -0.182400
     22 C1          -2.9500    -4.7960    -6.5490 c          1 RPG       0.890600
     23 O1          -4.0990    -4.9480    -7.2270 o          1 RPG      -0.859300
     24 O2          -2.1000    -5.6540    -6.5990 o          1 RPG      -0.859300
     25 H1           1.7460    -0.4770     2.0910 ha         1 RPG       0.148000
     26 H3           4.0760    -0.5190     1.4850 ha         1 RPG       0.140000
     27 H5           4.0650    -0.8950    -0.9530 hc         1 RPG       0.071700
     28 H6           3.8790     2.2130    -0.8560 ha         1 RPG       0.150000
     29 H7           5.8040     0.1370    -1.9660 ha         1 RPG       0.129000
     30 H8           6.1650     2.3970    -3.2630 h1         1 RPG       0.038700
     31 H9           8.0520     1.3790    -1.9670 hc         1 RPG       0.052700
     32 H10          7.5690     2.3470    -0.5670 hc         1 RPG       0.052700
     33 H11          7.9030     4.4140    -1.8820 hc         1 RPG       0.043200
     34 H12          8.3870     3.4450    -3.2810 hc         1 RPG       0.043200
     35 H13         10.2760     2.5160    -1.9840 hc         1 RPG       0.041200
     36 H14          9.7920     3.4840    -0.5850 hc         1 RPG       0.041200
     37 H15         10.1280     5.5520    -1.8990 hc         1 RPG       0.039700
     38 H16         10.6110     4.5840    -3.2990 hc         1 RPG       0.039700
     39 H17         12.0180     4.6230    -0.6040 hc         1 RPG       0.031700
     40 H18         12.5910     5.4190    -2.0760 hc         1 RPG       0.031700
     41 H19         12.5010     3.6530    -2.0020 hc         1 RPG       0.031700
     42 H20          5.2270     4.0680    -2.3820 ho         1 RPG       0.402000
     43 H21          1.9420     0.8830    -1.8140 hc         1 RPG       0.087700
     44 H22          2.6400    -1.3420    -2.8200 hc         1 RPG       0.043700
     45 H23          1.9180    -2.1400    -1.4170 hc         1 RPG       0.043700
     46 H24         -0.2670    -1.1170    -1.9590 hc         1 RPG       0.051200
     47 H25          0.4560    -0.3180    -3.3620 hc         1 RPG       0.051200
     48 H26          1.0310    -2.5240    -4.3220 hc         1 RPG       0.036700
     49 H27          0.3080    -3.3230    -2.9190 hc         1 RPG       0.036700
     50 H28         -1.1540    -1.5010    -4.8650 hc         1 RPG       0.031200
     51 H29         -1.8770    -2.2990    -3.4610 hc         1 RPG       0.031200
     52 H30         -1.3010    -4.5050    -4.4180 hc         1 RPG       0.044200
     53 H31         -0.5770    -3.7070    -5.8220 hc         1 RPG       0.044200
     54 H32         -2.7630    -2.6840    -6.3660 hc         1 RPG       0.027200
     55 H33         -3.4860    -3.4820    -4.9630 hc         1 RPG       0.027200
@<TRIPOS>BOND
     1    13    12 1
     2    12    11 1
     3    11    10 1
     4    10     9 1
     5     9     8 1
     6     8    14 1
     7     8     7 1
     8     7     6 2
     9     6     5 1
    10    17    18 1
    11    17    16 1
    12    19    18 1
    13    19    20 1
    14    15     5 1
    15    15    16 1
    16    15     2 1
    17     5     4 1
    18    20    21 1
    19     2     1 2
    20     2     3 1
    21     4     3 2
    22    21    22 1
    23    24    22 1
    24    22    23 1
    25     3    25 1
    26     4    26 1
    27     5    27 1
    28     6    28 1
    29     7    29 1
    30     8    30 1
    31     9    31 1
    32     9    32 1
    33    10    33 1
    34    10    34 1
    35    11    35 1
    36    11    36 1
    37    12    37 1
    38    12    38 1
    39    13    39 1
    40    13    40 1
    41    13    41 1
    42    14    42 1
    43    15    43 1
    44    16    44 1
    45    16    45 1
    46    17    46 1
    47    17    47 1
    48    18    48 1
    49    18    49 1
    50    19    50 1
    51    19    51 1
    52    20    52 1
    53    20    53 1
    54    21    54 1
    55    21    55 1
@<TRIPOS>SUBSTRUCTURE
     1 RPG         1 TEMP              0 ****  ****    0 ROOT
