@<TRIPOS>MOLECULE
molecule
   27    28     1     0     0
SMALL
bcc


@<TRIPOS>ATOM
      1 O2           0.0000     0.0000     0.0000 o          1 RPH      -0.493100
      2 OH2         -1.1640    -2.8130     4.9870 oh         1 RPH      -0.611800
      3 N5           1.0100    -0.0570     2.4400 n7         1 RPH      -0.774200
      4 C7           1.2070     0.0000     0.0000 c          1 RPH       0.569900
      5 C8           1.9600     0.0000     1.3040 c3         1 RPH       0.029500
      6 C9           2.8510    -1.2540     1.3970 c3         1 RPH      -0.080400
      7 C10          2.3340    -2.0190     2.6470 c3         1 RPH      -0.064700
      8 C11          1.2750    -3.0060     2.1490 c3         1 RPH      -0.071400
      9 C12          0.4300    -3.5260     3.3090 c3         1 RPH      -0.087400
     10 C13         -0.3060    -2.3420     3.9440 c3         1 RPH       0.149100
     11 C14          0.7330    -1.3850     4.5250 c3         1 RPH      -0.073400
     12 C15          1.6820    -0.8960     3.4730 c3         1 RPH       0.159500
     13 HN5          0.8660     0.8660     2.8010 hn         1 RPH       0.352800
     14 H7           1.7490     0.0240    -0.9380 h4         1 RPH      -0.006800
     15 H8           2.5710     0.8910     1.3820 h1         1 RPH       0.047700
     16 H91          2.7360    -1.8630     0.5090 hc         1 RPH       0.051200
     17 H92          3.8870    -0.9680     1.5340 hc         1 RPH       0.051200
     18 H10          3.1360    -2.5110     3.1850 hc         1 RPH       0.065700
     19 H111         1.7680    -3.8420     1.6670 hc         1 RPH       0.050200
     20 H112         0.6310    -2.5060     1.4360 hc         1 RPH       0.050200
     21 H121        -0.2910    -4.2450     2.9390 hc         1 RPH       0.049200
     22 H122         1.0720    -3.9920     4.0460 hc         1 RPH       0.049200
     23 H13         -0.8890    -1.8300     3.1890 h1         1 RPH       0.058700
     24 H141         1.2950    -1.9000     5.2950 hc         1 RPH       0.052200
     25 H142         0.2230    -0.5350     4.9620 hc         1 RPH       0.052200
     26 H15          2.4610    -0.3120     3.9480 h1         1 RPH       0.024700
     27 HO2         -2.0570    -2.5900     4.7830 ho         1 RPH       0.401000
@<TRIPOS>BOND
     1     1     4 2
     2     2    10 1
     3     2    27 1
     4     3     5 1
     5     3    12 1
     6     3    13 1
     7     4     5 1
     8     4    14 1
     9     5     6 1
    10     5    15 1
    11     6     7 1
    12     6    16 1
    13     6    17 1
    14     7     8 1
    15     7    12 1
    16     7    18 1
    17     8     9 1
    18     8    19 1
    19     8    20 1
    20     9    10 1
    21     9    21 1
    22     9    22 1
    23    10    11 1
    24    10    23 1
    25    11    12 1
    26    11    24 1
    27    11    25 1
    28    12    26 1
@<TRIPOS>SUBSTRUCTURE
     1 RPH         1 TEMP              0 ****  ****    0 ROOT
