@<TRIPOS>MOLECULE
RPN
   23    23     1     0     0
SMALL
bcc


@<TRIPOS>ATOM
      1 C1         -0.0980   -0.0870   -0.2690 c3        1 RPN      0.134800
      2 C2          1.3140    0.2830    0.2370 c3        1 RPN      0.149400
      3 O3          1.2790    0.5250    1.6310 oh        1 RPN     -0.589800
      4 C4          1.8720    1.4310   -0.5530 ca        1 RPN     -0.074300
      5 N5         -0.6150   -1.3630    0.1680 n2        1 RPN     -0.447200
      6 N6         -0.7120   -1.6550    1.3880 n1        1 RPN      0.222000
      7 N7         -0.8720   -2.1080    2.4140 n1        1 RPN     -0.031000
      8 C8          2.0590    1.2800   -1.9340 ca        1 RPN     -0.134500
      9 C9          2.5850    2.3170   -2.6980 ca        1 RPN     -0.063000
     10 C10         2.9350    3.5220   -2.0670 ca        1 RPN     -0.175200
     11 C11         2.7690    3.6810   -0.6830 ca        1 RPN     -0.063000
     12 C12         2.2410    2.6300    0.0630 ca        1 RPN     -0.134500
     13 N13         3.4920    4.6390   -2.8750 no        1 RPN      0.313200
     14 O14         3.6350    4.4860   -4.0580 o         1 RPN     -0.205000
     15 O15         3.7830    5.6660   -2.3230 o         1 RPN     -0.205000
     16 HC11       -0.7960    0.7620   -0.0120 h1        1 RPN      0.069700
     17 HC12       -0.0780   -0.1990   -1.3900 h1        1 RPN      0.069700
     18 HC2         2.0160   -0.5990    0.1380 h1        1 RPN      0.107700
     19 H03         0.6890    1.2740    1.7870 ho        1 RPN      0.403000
     20 HC8         1.7980    0.3290   -2.4250 ha        1 RPN      0.153000
     21 HC9         2.7290    2.1950   -3.7860 ha        1 RPN      0.174000
     22 H11         3.0580    4.6260   -0.1910 ha        1 RPN      0.174000
     23 H12         2.1360    2.7490    1.1540 ha        1 RPN      0.153000
@<TRIPOS>BOND
     1    1    2 1
     2    1    5 1
     3    1   16 1
     4    1   17 1
     5    2    3 1
     6    2    4 1
     7    2   18 1
     8    3   19 1
     9    4    8 ar
    10    4   12 ar
    11    5    6 1
    12    6    7 3
    13    8    9 ar
    14    8   20 1
    15    9   10 ar
    16    9   21 1
    17   10   11 ar
    18   10   13 1
    19   11   12 ar
    20   11   22 1
    21   12   23 1
    22   13   14 1
    23   13   15 1
@<TRIPOS>SUBSTRUCTURE
     1 RPN         1 TEMP              0 ****  ****    0 ROOT
