@<TRIPOS>MOLECULE
RPP
   34    36     1     0     0
SMALL
bcc


@<TRIPOS>ATOM
      1 I            0.0000     0.0000     0.0000 i          1 RPP      -0.526900
      2 N1           3.3690    -2.9830    -2.0410 nb         1 RPP      -0.727000
      3 C2           3.7520    -3.7050    -1.0100 ca         1 RPP       0.715900
      4 N3           3.6300    -3.2800     0.2310 nb         1 RPP      -0.652000
      5 C4           3.1070    -2.0830     0.4940 ca         1 RPP       0.585200
      6 C5           2.7030    -1.2880    -0.5730 ca         1 RPP      -0.521900
      7 C6           2.8380    -1.7730    -1.8640 ca         1 RPP       0.601200
      8 N6           2.4350    -1.0120    -2.9510 nv         1 RPP      -0.487500
      9 C7           2.1610     0.0000     0.0000 c3         1 RPP       0.588700
     10 N8           2.6850     0.0000     1.3890 n7         1 RPP      -0.394000
     11 N9           2.8670    -1.4200     1.6890 nh         1 RPP      -0.311100
     12 C1'          4.0950    -1.5290     2.4870 c3         1 RPP       0.330300
     13 C2'          3.9060    -0.8490     3.8610 c3         1 RPP       0.131100
     14 C3'          4.6840    -1.7590     4.8390 c3         1 RPP       0.131100
     15 C4'          5.2530    -2.8770     3.9390 c3         1 RPP       0.147100
     16 O4'          4.3750    -2.9120     2.7930 os         1 RPP      -0.342600
     17 O2'          4.4610     0.4690     3.8540 oh         1 RPP      -0.550800
     18 O3'          5.7440    -1.0330     5.4650 oh         1 RPP      -0.553800
     19 C5'          5.2250    -4.2200     4.6730 c3         1 RPP       0.227400
     20 O5'          5.6870    -5.2510     3.7980 oh         1 RPP      -0.573800
     21 HN61         2.0370    -0.1050    -2.8070 hn         1 RPP       0.276300
     22 HN62         2.5460    -1.3680    -3.8800 hn         1 RPP       0.276300
     23 H7           2.5470     0.8500    -0.5490 h2         1 RPP       0.061700
     24 HN8          1.9970     0.3850     2.0050 hn         1 RPP       0.307800
     25 H1'          4.9330    -1.0860     1.9620 h2         1 RPP       0.044700
     26 H2'          2.8560    -0.8230     4.1260 h1         1 RPP       0.019700
     27 H3'          4.0130    -2.1760     5.5800 h1         1 RPP       0.012700
     28 H4'          6.2620    -2.6320     3.6290 h1         1 RPP       0.046700
     29 HO'2         3.9380     1.0330     4.3990 ho         1 RPP       0.387000
     30 HO'3         5.6110    -1.0250     6.3980 ho         1 RPP       0.384000
     31 H5'1         5.8680    -4.1700     5.5430 h1         1 RPP      -0.010300
     32 H5'2         4.2110    -4.4400     4.9850 h1         1 RPP      -0.010300
     33 HO'5         5.7680    -6.0580     4.2780 ho         1 RPP       0.386000
     34 H2           4.1800    -4.6850    -1.1870 h5         1 RPP       0.000100
@<TRIPOS>BOND
     1     1     9 1   
     2     2     3 ar  
     3     2     7 ar  
     4     3     4 ar  
     5     3    34 1   
     6     4     5 ar  
     7     5     6 ar  
     8     5    11 1   
     9     6     7 ar  
    10     6     9 1   
    11     7     8 1   
    12     8    21 1   
    13     8    22 1   
    14     9    10 1   
    15     9    23 1   
    16    10    11 1   
    17    10    24 1   
    18    11    12 1   
    19    12    13 1   
    20    12    16 1   
    21    12    25 1   
    22    13    14 1   
    23    13    17 1   
    24    13    26 1   
    25    14    15 1   
    26    14    18 1   
    27    14    27 1   
    28    15    16 1   
    29    15    19 1   
    30    15    28 1   
    31    17    29 1   
    32    18    30 1   
    33    19    20 1   
    34    19    31 1   
    35    19    32 1   
    36    20    33 1   
@<TRIPOS>SUBSTRUCTURE
     1 RPP         1 TEMP              0 ****  ****    0 ROOT
