@<TRIPOS>MOLECULE
molecule
   23    24     1     0     0
SMALL
bcc


@<TRIPOS>ATOM
      1 O3           0.0000     0.0000     0.0000 oh         1 RPQ      -0.578800
      2 C3           1.4300     0.0000     0.0000 c3         1 RPQ       0.124100
      3 C4           1.9410     0.0000     1.4430 c3         1 RPQ       0.131100
      4 O4           1.2990    -1.0450     2.1770 oh         1 RPQ      -0.591800
      5 C2           1.9420     1.2560    -0.7170 c3         1 RPQ       0.118800
      6 O2           1.2660     2.4090    -0.2130 oh         1 RPQ      -0.573800
      7 C1           3.4210     1.3770    -0.4530 cc         1 RPQ       0.314800
      8 N20          4.2990     2.1120    -1.0740 nd         1 RPQ      -0.369000
      9 N2           5.4470     1.9070    -0.5200 nd         1 RPQ      -0.040000
     10 N1           5.3150     1.0580     0.4420 nc         1 RPQ      -0.217800
     11 N5           4.0810     0.7090     0.5140 na         1 RPQ      -0.002400
     12 C5           3.4560    -0.2290     1.4510 c3         1 RPQ       0.056000
     13 C6           4.0050     0.0110     2.8590 c3         1 RPQ      -0.101100
     14 H1          -0.3140    -0.6520    -0.6040 ho         1 RPQ       0.410000
     15 H2           1.7960    -0.8820    -0.5120 h1         1 RPQ       0.055700
     16 H3           1.7210     0.9570     1.9020 h1         1 RPQ       0.077700
     17 H4           0.6950    -0.6690     2.7960 ho         1 RPQ       0.423000
     18 H5           1.7700     1.1610    -1.7820 h1         1 RPQ       0.070700
     19 H6           1.0060     2.9610    -0.9330 ho         1 RPQ       0.420000
     20 H7           3.6700    -1.2450     1.1410 h1         1 RPQ       0.091700
     21 H8           3.8220     1.0390     3.1470 hc         1 RPQ       0.061033
     22 H9           3.5100    -0.6540     3.5570 hc         1 RPQ       0.061033
     23 H10          5.0710    -0.1830     2.8690 hc         1 RPQ       0.061033
@<TRIPOS>BOND
     1     1     2 1
     2     6     5 1
     3     2     3 1
     4     2     5 1
     5     4     3 1
     6     3    12 1
     7     5     7 1
     8     7     8 2
     9     7    11 1
    10    12    11 1
    11    12    13 1
    12     8     9 1
    13    11    10 1
    14     9    10 2
    15     1    14 1
    16     2    15 1
    17     3    16 1
    18     4    17 1
    19     5    18 1
    20     6    19 1
    21    12    20 1
    22    13    21 1
    23    13    22 1
    24    13    23 1
@<TRIPOS>SUBSTRUCTURE
     1 RPQ         1 TEMP              0 ****  ****    0 ROOT
