@<TRIPOS>MOLECULE
RPR
   66    68     1     0     0
SMALL
bcc


@<TRIPOS>ATOM
      1 C1           0.0000     0.0000     0.0000 ca         1 RPR      -0.096000
      2 C2           1.3940     0.0000     0.0000 cp         1 RPR      -0.001000
      3 C3           2.0840     0.0000     1.2100 ca         1 RPR      -0.036000
      4 C4           1.3870    -0.0070     2.4010 ca         1 RPR      -0.070000
      5 C5           0.0040    -0.0150     2.3940 ca         1 RPR      -0.062000
      6 C6          -0.6870    -0.0150     1.1970 ca         1 RPR      -0.175300
      7 C7           3.9830    -0.7570    -2.6130 ca         1 RPR      -0.050000
      8 C8           3.5300     0.0210    -3.6800 ca         1 RPR      -0.134600
      9 C9           2.3770     0.7960    -3.5370 ca         1 RPR      -0.050000
     10 C10          1.6830     0.7840    -2.3480 ca         1 RPR      -0.092500
     11 C11          2.1380     0.0070    -1.2820 cp         1 RPR      -0.048000
     12 C12          3.2920    -0.7630    -1.4230 ca         1 RPR      -0.092500
     13 N14          3.8330     0.7780    -5.9860 ns         1 RPR      -0.209900
     14 C15          4.5680     0.7860    -7.2540 c3         1 RPR       0.027700
     15 C16          5.6210     1.8960    -7.2250 c3         1 RPR      -0.089100
     16 C17          3.5950     1.0350    -8.4060 c3         1 RPR      -0.108700
     17 C18          2.5580    -0.0570    -8.4340 c          1 RPR       0.678100
     18 O19          1.2910     0.2290    -8.7720 os         1 RPR      -0.433900
     19 C20          4.3630     1.0430    -9.7300 c3         1 RPR       0.026900
     20 C21         -2.1940    -0.0220     1.1980 c3         1 RPR      -0.019900
     21 N22         -2.6900     1.3600     1.2020 nz         1 RPR       0.123400
     22 C23          2.8350     0.4030   -11.6010 ca         1 RPR      -0.050000
     23 C24          1.9620     0.7340   -12.6370 ca         1 RPR      -0.223900
     24 C25          1.7000     2.0740   -12.9180 ca         1 RPR      -0.094000
     25 C26          2.3020     3.0650   -12.1670 ca         1 RPR      -0.058000
     26 C27          3.1610     2.7290   -11.1380 ca         1 RPR      -0.034000
     27 C28          3.4240     1.4000   -10.8540 ca         1 RPR      -0.069300
     28 N30          0.4610     0.0000   -14.4640 nz         1 RPR       0.188400
     29 N31          1.5640    -1.5830   -13.1730 n2         1 RPR      -0.484100
     30 O32          2.8670    -1.1900    -8.1520 o          1 RPR      -0.554000
     31 C34          0.2920    -0.8240    -8.7970 c3         1 RPR       0.274700
     32 H11         -0.5430     0.0000    -0.9380 ha         1 RPR       0.115000
     33 H31          3.1680     0.0030     1.2170 ha         1 RPR       0.132000
     34 H41          1.9230    -0.0070     3.3420 ha         1 RPR       0.131000
     35 H51         -0.5400    -0.0240     3.3310 ha         1 RPR       0.119000
     36 H71          4.8780    -1.3580    -2.7220 ha         1 RPR       0.122500
     37 H91          2.0240     1.4000    -4.3640 ha         1 RPR       0.122500
     38 H101         0.7890     1.3850    -2.2370 ha         1 RPR       0.107500
     39 H121         3.6430    -1.3670    -0.5950 ha         1 RPR       0.107500
     40 H141         3.0230     1.3560    -5.8750 hn         1 RPR       0.175500
     41 H151         5.0560    -0.1710    -7.3940 h1         1 RPR       0.086700
     42 H161         5.7660     2.3570    -6.2560 hc         1 RPR       0.045700
     43 H162         5.6130     2.5490    -8.0890 hc         1 RPR       0.045700
     44 H163         6.1580     0.9660    -7.3670 hc         1 RPR       0.045700
     45 H171         3.1070     1.9930    -8.2660 hc         1 RPR       0.048700
     46 H201         5.1610     1.7740    -9.6800 hc         1 RPR       0.050200
     47 H202         4.7830     0.0610    -9.9090 hc         1 RPR       0.050200
     48 H211        -1.8760     0.3730     0.2410 hx         1 RPR       0.081700
     49 H212        -2.8010    -0.8860     0.9540 hx         1 RPR       0.081700
     50 H221        -2.0650     1.9370     1.7290 hn         1 RPR       0.213467
     51 H222        -2.7440     1.6980     0.2620 hn         1 RPR       0.213467
     52 H231         3.1070    -0.6320   -11.4330 ha         1 RPR       0.119000
     53 H251         0.9800     2.3370   -13.6830 ha         1 RPR       0.087000
     54 H261         2.1060     4.1060   -12.3900 ha         1 RPR       0.128000
     55 H271         3.6370     3.5090   -10.5560 ha         1 RPR       0.127000
     56 H301         0.9460     0.5600   -15.1370 hn         1 RPR       0.223133
     57 H302        -0.3170     0.5150   -14.1000 hn         1 RPR       0.223133
     58 H311         2.1880    -1.8250   -12.4290 hn         1 RPR       0.382400
     59 H341         0.6780    -1.6750    -9.3450 h1         1 RPR       0.001367
     60 H342         0.0580    -1.1240    -7.7830 h1         1 RPR       0.001367
     61 H343        -0.6050    -0.4590    -9.2820 h1         1 RPR       0.001367
     62 H223        -3.5970     1.3880     1.6250 hn         1 RPR       0.213467
     63 H303         0.1320    -0.8380   -14.9020 hn         1 RPR       0.223133
     64 C13          4.2710     0.0280    -4.9580 c          1 RPR       0.599700
     65 C29          1.3190    -0.3320   -13.4380 ce         1 RPR       0.210800
     66 O33          5.2770    -0.6440    -5.0810 o          1 RPR      -0.619100
@<TRIPOS>BOND
     1     1     2 ar  
     2     1     6 ar  
     3     1    32 1   
     4     2     3 ar  
     5     2    11 1   
     6     3     4 ar  
     7     3    33 1   
     8     4     5 ar  
     9     4    34 1   
    10     5     6 ar  
    11     5    35 1   
    12     6    20 1   
    13     7     8 ar  
    14     7    12 ar  
    15     7    36 1   
    16     8     9 ar  
    17     8    64 1   
    18     9    10 ar  
    19     9    37 1   
    20    10    11 ar  
    21    10    38 1   
    22    11    12 ar  
    23    12    39 1   
    24    13    14 1   
    25    13    40 1   
    26    13    64 1   
    27    14    15 1   
    28    14    16 1   
    29    14    41 1   
    30    15    42 1   
    31    15    43 1   
    32    15    44 1   
    33    16    17 1   
    34    16    19 1   
    35    16    45 1   
    36    17    18 1   
    37    17    30 2   
    38    18    31 1   
    39    19    27 1   
    40    19    46 1   
    41    19    47 1   
    42    20    21 1   
    43    20    48 1   
    44    20    49 1   
    45    21    50 1   
    46    21    51 1   
    47    21    62 1   
    48    22    23 ar  
    49    22    27 ar  
    50    22    52 1   
    51    23    24 ar  
    52    23    65 1   
    53    24    25 ar  
    54    24    53 1   
    55    25    26 ar  
    56    25    54 1   
    57    26    27 ar  
    58    26    55 1   
    59    28    56 1   
    60    28    57 1   
    61    28    63 1   
    62    28    65 1   
    63    29    58 1   
    64    29    65 2   
    65    31    59 1   
    66    31    60 1   
    67    31    61 1   
    68    64    66 2   
@<TRIPOS>SUBSTRUCTURE
     1 RPR         1 TEMP              0 ****  ****    0 ROOT
