@<TRIPOS>MOLECULE
RQ3
   47    48     1     0     0
SMALL
bcc


@<TRIPOS>ATOM
      1 C1           0.0000     0.0000     0.0000 c          1 RQ3       0.984600
      2 O2           1.3420     0.0000     0.0000 o          1 RQ3      -0.881800
      3 O3          -0.6050     0.0000     1.0460 o          1 RQ3      -0.881800
      4 C4          -0.7530    -0.0010    -1.3060 c3         1 RQ3       0.049800
      5 C5          -0.3820    -1.2500    -2.1060 c3         1 RQ3      -0.039600
      6 C6          -0.3840     1.2470    -2.1090 c3         1 RQ3      -0.039600
      7 O7          -2.1580    -0.0010    -1.0450 os         1 RQ3      -0.281900
      8 C8          -2.7800     0.0580    -2.2510 ca         1 RQ3       0.154100
      9 C9          -3.0930     1.2860    -2.8130 ca         1 RQ3      -0.138500
     10 C10         -3.7270     1.3440    -4.0380 ca         1 RQ3      -0.083000
     11 C11         -4.0500     0.1780    -4.7070 ca         1 RQ3      -0.121300
     12 C12         -3.1060    -1.1110    -2.9230 ca         1 RQ3      -0.138500
     13 C13         -3.7450    -1.0490    -4.1470 ca         1 RQ3      -0.083000
     14 C14         -4.7400     0.2440    -6.0430 c3         1 RQ3      -0.025100
     15 C15         -3.7090     0.2890    -7.1400 c          1 RQ3       0.551100
     16 O16         -2.5280     0.2690    -6.8630 o          1 RQ3      -0.599100
     17 N17         -4.0970     0.3500    -8.4290 ns         1 RQ3      -0.058100
     18 C18         -3.1430     0.2950    -9.4520 ca         1 RQ3      -0.069400
     19 C19         -3.3340     1.0180   -10.6210 ca         1 RQ3      -0.124500
     20 C20         -2.3930     0.9580   -11.6300 ca         1 RQ3      -0.069800
     21 C21         -1.2570     0.1860   -11.4710 ca         1 RQ3      -0.125000
     22 C22         -2.0020    -0.4790    -9.2950 ca         1 RQ3      -0.124500
     23 C23         -1.0620    -0.5320   -10.3060 ca         1 RQ3      -0.069800
     24 C24         -2.6020     1.7380   -12.9020 c3         1 RQ3       0.064200
     25 C25          0.1780    -1.3710   -10.1380 c3         1 RQ3       0.064200
     26 H51         -0.8930    -2.1110    -1.6910 hc         1 RQ3       0.011367
     27 H52         -0.6800    -1.1190    -3.1400 hc         1 RQ3       0.011367
     28 H53          0.6890    -1.4070    -2.0560 hc         1 RQ3       0.011367
     29 H61          0.6900     1.3860    -2.0860 hc         1 RQ3       0.011367
     30 H62         -0.8700     2.1120    -1.6750 hc         1 RQ3       0.011367
     31 H63         -0.7110     1.1260    -3.1350 hc         1 RQ3       0.011367
     32 H91         -2.8400     2.2010    -2.2900 ha         1 RQ3       0.121500
     33 H101        -3.9680     2.3050    -4.4780 ha         1 RQ3       0.090000
     34 H121        -2.8670    -2.0730    -2.4850 ha         1 RQ3       0.121500
     35 H131        -3.9990    -1.9620    -4.6720 ha         1 RQ3       0.090000
     36 H141        -5.3550     1.1350    -6.0890 hc         1 RQ3       0.022700
     37 H142        -5.3650    -0.6320    -6.1710 hc         1 RQ3       0.022700
     38 H171        -5.0690     0.4200    -8.6560 hn         1 RQ3       0.162500
     39 H191        -4.2330     1.6070   -10.7530 ha         1 RQ3       0.123500
     40 H211        -0.5180     0.1420   -12.2630 ha         1 RQ3       0.105000
     41 H221        -1.8820    -1.0940    -8.4120 ha         1 RQ3       0.123500
     42 H241        -2.9430     2.7370   -12.6610 hc         1 RQ3       0.005867
     43 H242        -1.6670     1.7970   -13.4460 hc         1 RQ3       0.005867
     44 H243        -3.3450     1.2400   -13.5130 hc         1 RQ3       0.005867
     45 H251         0.2250    -1.7460    -9.1220 hc         1 RQ3       0.005867
     46 H252         1.0540    -0.7670   -10.3400 hc         1 RQ3       0.005867
     47 H253         0.1470    -2.2040   -10.8290 hc         1 RQ3       0.005867
@<TRIPOS>BOND
     1     1     2 1   
     2     1     3 1   
     3     1     4 1   
     4     4     5 1   
     5     4     6 1   
     6     4     7 1   
     7     5    26 1   
     8     5    27 1   
     9     5    28 1   
    10     6    29 1   
    11     6    30 1   
    12     6    31 1   
    13     7     8 1   
    14     8     9 ar  
    15     8    12 ar  
    16     9    10 ar  
    17     9    32 1   
    18    10    11 ar  
    19    10    33 1   
    20    11    13 ar  
    21    11    14 1   
    22    12    13 ar  
    23    12    34 1   
    24    13    35 1   
    25    14    15 1   
    26    14    36 1   
    27    14    37 1   
    28    15    16 2   
    29    15    17 1   
    30    17    18 1   
    31    17    38 1   
    32    18    19 ar  
    33    18    22 ar  
    34    19    20 ar  
    35    19    39 1   
    36    20    21 ar  
    37    20    24 1   
    38    21    23 ar  
    39    21    40 1   
    40    22    23 ar  
    41    22    41 1   
    42    23    25 1   
    43    24    42 1   
    44    24    43 1   
    45    24    44 1   
    46    25    45 1   
    47    25    46 1   
    48    25    47 1   
@<TRIPOS>SUBSTRUCTURE
     1 RQ3         1 TEMP              0 ****  ****    0 ROOT
