@<TRIPOS>MOLECULE
RQQ
   37    39     1     0     0
SMALL
bcc


@<TRIPOS>ATOM
      1 O1           0.0000     0.0000     0.0000 o          1 RQQ      -0.646100
      2 C6           1.2150     0.0000     0.0000 c          1 RQQ       0.591700
      3 C4           1.9540     0.0000     1.2810 ca         1 RQQ      -0.154600
      4 C3           3.3600     0.0010     1.2750 ca         1 RQQ      -0.083000
      5 C2           4.0600     0.0010     2.4380 ca         1 RQQ      -0.139300
      6 C5           1.2570     0.0050     2.4770 ca         1 RQQ      -0.056300
      7 C            1.9630     0.0060     3.6900 ca         1 RQQ       0.244300
      8 N2           1.3190     0.0100     4.8620 nb         1 RQQ      -0.522000
      9 C16          2.0030     0.0100     5.9820 ca         1 RQQ       0.285900
     10 C15          3.4000     0.0050     5.9640 ca         1 RQQ       0.297900
     11 N1           4.0560     0.0000     4.8250 nb         1 RQQ      -0.541000
     12 C1           3.3810     0.0010     3.6700 ca         1 RQQ       0.273300
     13 N            1.8890    -0.0060    -1.1670 ns         1 RQQ      -0.198900
     14 C7           1.1570    -0.0110    -2.4360 c3         1 RQQ       0.120300
     15 C8           2.1370    -0.0160    -3.5810 ca         1 RQQ      -0.175300
     16 C14          2.5870    -1.2160    -4.0990 ca         1 RQQ      -0.040000
     17 C13          3.4850    -1.2240    -5.1490 ca         1 RQQ      -0.179000
     18 C11          3.9360    -0.0250    -5.6820 ca         1 RQQ       0.161100
     19 O            4.8200    -0.0300    -6.7150 os         1 RQQ      -0.306900
     20 C12          5.2410     1.2420    -7.2140 c3         1 RQQ       0.244700
     21 C10          3.4840     1.1780    -5.1610 ca         1 RQQ      -0.179000
     22 C9           2.5810     1.1800    -4.1150 ca         1 RQQ      -0.040000
     23 H            2.8900     0.0020    -1.1660 hn         1 RQQ       0.182500
     24 H3           3.8910     0.0020     0.3310 ha         1 RQQ       0.105000
     25 H5           0.1800    -0.1170     2.4770 ha         1 RQQ       0.143000
     26 H2           5.1440     0.0020     2.4170 ha         1 RQQ       0.121000
     27 H16          1.4800     0.0140     6.9300 h4         1 RQQ      -0.010900
     28 H15          3.9490     0.0050     6.8980 h4         1 RQQ      -0.011900
     29 H71C         0.5340    -0.8960    -2.4900 h1         1 RQQ       0.029200
     30 H72C         0.5340     0.8730    -2.4980 h1         1 RQQ       0.029200
     31 H14          2.2340    -2.1520    -3.6820 ha         1 RQQ       0.107500
     32 H9           2.2270     2.1190    -3.7070 ha         1 RQQ       0.107500
     33 H13          3.8370    -2.1650    -5.5540 ha         1 RQQ       0.121000
     34 H10          3.8330     2.1150    -5.5770 ha         1 RQQ       0.121000
     35 H121         5.7220     1.8000    -6.4200 h1         1 RQQ      -0.001300
     36 H122         5.9400     1.0970    -8.0290 h1         1 RQQ      -0.001300
     37 H123         4.3790     1.7930    -7.5710 h1         1 RQQ      -0.001300
@<TRIPOS>BOND
     1     1     2 2   
     2     2     3 1   
     3     2    13 1   
     4     3     4 ar  
     5     3     6 ar  
     6     4     5 ar  
     7     4    24 1   
     8     5    12 ar  
     9     5    26 1   
    10     6     7 ar  
    11     6    25 1   
    12     7     8 ar  
    13     7    12 ar  
    14     8     9 ar  
    15     9    10 ar  
    16     9    27 1   
    17    10    11 ar  
    18    10    28 1   
    19    11    12 ar  
    20    13    14 1   
    21    13    23 1   
    22    14    15 1   
    23    14    29 1   
    24    14    30 1   
    25    15    16 ar  
    26    15    22 ar  
    27    16    17 ar  
    28    16    31 1   
    29    17    18 ar  
    30    17    33 1   
    31    18    19 1   
    32    18    21 ar  
    33    19    20 1   
    34    20    35 1   
    35    20    36 1   
    36    20    37 1   
    37    21    22 ar  
    38    21    34 1   
    39    22    32 1   
@<TRIPOS>SUBSTRUCTURE
     1 RQQ         1 TEMP              0 ****  ****    0 ROOT
