@<TRIPOS>MOLECULE
molecule
   37    39     1     0     0
SMALL
bcc


@<TRIPOS>ATOM
      1 O1           0.0000     0.0000     0.0000 o          1 RQQ      -0.604100
      2 C6           1.2150     0.0000     0.0000 c          1 RQQ       0.670700
      3 C4           1.9540     0.0000     1.2810 ca         1 RQQ      -0.143600
      4 C3           3.3600     0.0010     1.2750 ca         1 RQQ      -0.106000
      5 C2           4.0600     0.0010     2.4380 ca         1 RQQ      -0.163300
      6 C5           1.2570     0.0050     2.4770 ca         1 RQQ      -0.087300
      7 C            1.9630     0.0060     3.6900 ca         1 RQQ       0.286300
      8 N2           1.3190     0.0100     4.8620 nb         1 RQQ      -0.630000
      9 C16          2.0030     0.0100     5.9820 ca         1 RQQ       0.300900
     10 C15          3.4000     0.0050     5.9640 ca         1 RQQ       0.310900
     11 N1           4.0560     0.0000     4.8250 nb         1 RQQ      -0.645000
     12 C1           3.3810     0.0010     3.6700 ca         1 RQQ       0.311300
     13 N            1.8890    -0.0060    -1.1670 ns         1 RQQ      -0.580900
     14 C7           1.1570    -0.0110    -2.4360 c3         1 RQQ       0.167300
     15 C8           2.1370    -0.0160    -3.5810 ca         1 RQQ      -0.162300
     16 C14          2.5870    -1.2160    -4.0990 ca         1 RQQ      -0.074500
     17 C13          3.4850    -1.2240    -5.1490 ca         1 RQQ      -0.193500
     18 C11          3.9360    -0.0250    -5.6820 ca         1 RQQ       0.151100
     19 O            4.8200    -0.0300    -6.7150 os         1 RQQ      -0.327900
     20 C12          5.2410     1.2420    -7.2140 c3         1 RQQ       0.127700
     21 C10          3.4840     1.1780    -5.1610 ca         1 RQQ      -0.193500
     22 C9           2.5810     1.1800    -4.1150 ca         1 RQQ      -0.074500
     23 H            2.8900     0.0020    -1.1660 hn         1 RQQ       0.318500
     24 H3           3.8910     0.0020     0.3310 ha         1 RQQ       0.132000
     25 H5           0.1800    -0.1170     2.4770 ha         1 RQQ       0.179000
     26 H2           5.1440     0.0020     2.4170 ha         1 RQQ       0.153000
     27 H16          1.4800     0.0140     6.9300 h4         1 RQQ       0.034100
     28 H15          3.9490     0.0050     6.8980 h4         1 RQQ       0.033100
     29 H71C         0.5340    -0.8960    -2.4900 h1         1 RQQ       0.059700
     30 H72C         0.5340     0.8730    -2.4980 h1         1 RQQ       0.059700
     31 H14          2.2340    -2.1520    -3.6820 ha         1 RQQ       0.138000
     32 H9           2.2270     2.1190    -3.7070 ha         1 RQQ       0.138000
     33 H13          3.8370    -2.1650    -5.5540 ha         1 RQQ       0.142500
     34 H10          3.8330     2.1150    -5.5770 ha         1 RQQ       0.142500
     35 H121         5.7220     1.8000    -6.4200 h1         1 RQQ       0.043033
     36 H122         5.9400     1.0970    -8.0290 h1         1 RQQ       0.043033
     37 H123         4.3790     1.7930    -7.5710 h1         1 RQQ       0.043033
@<TRIPOS>BOND
     1     1     2 2
     2     2     3 1
     3     2    13 1
     4     3     4 ar
     5     3     6 ar
     6     4     5 ar
     7     5    12 ar
     8     6     7 ar
     9     7     8 ar
    10     7    12 ar
    11     8     9 ar
    12     9    10 ar
    13    10    11 ar
    14    11    12 ar
    15    13    14 1
    16    14    15 1
    17    15    16 ar
    18    15    22 ar
    19    16    17 ar
    20    17    18 ar
    21    18    19 1
    22    18    21 ar
    23    19    20 1
    24    21    22 ar
    25    13    23 1
    26     4    24 1
    27     6    25 1
    28     5    26 1
    29     9    27 1
    30    10    28 1
    31    14    29 1
    32    14    30 1
    33    16    31 1
    34    22    32 1
    35    17    33 1
    36    21    34 1
    37    20    35 1
    38    20    36 1
    39    20    37 1
@<TRIPOS>SUBSTRUCTURE
     1 RQQ         1 TEMP              0 ****  ****    0 ROOT
