@<TRIPOS>MOLECULE
RQX
   41    41     1     0     0
SMALL
bcc


@<TRIPOS>ATOM
      1 O2           0.0000     0.0000     0.0000 o          1 RQX      -0.514100
      2 C7           1.2150     0.0000     0.0000 c          1 RQX       0.655500
      3 C2           1.9550     0.0000     1.2790 cc         1 RQX      -0.142400
      4 C1           1.2020     0.0010     2.5840 c3         1 RQX       0.054100
      5 C6           1.9550    -0.0070    -1.2810 cc         1 RQX      -0.509200
      6 N            1.2620    -0.0120    -2.4850 nz         1 RQX       0.318600
      7 C5           3.3110    -0.0060    -1.2750 cd         1 RQX       0.257900
      8 O3           3.9950    -0.0120    -2.4500 os         1 RQX      -0.352900
      9 C8           4.7540     1.1580    -2.7640 c3         1 RQX       0.275700
     10 C4           4.0390    -0.0000     0.0020 c          1 RQX       0.553500
     11 O1           5.2540     0.0000     0.0090 o          1 RQX      -0.434100
     12 C3           3.2940     0.0000     1.2810 cd         1 RQX      -0.117400
     13 C9           4.0440     0.0070     2.5870 c3         1 RQX       0.058000
     14 C10          4.4080    -1.4060     2.9650 c2         1 RQX      -0.221200
     15 C11          5.6560    -1.7170     3.2130 c2         1 RQX      -0.080400
     16 C12          6.7440    -0.6980     2.9950 c3         1 RQX       0.036100
     17 C13          6.0030    -3.0940     3.7150 c3         1 RQX       0.016800
     18 C14          6.3970    -3.9840     2.5340 c3         1 RQX      -0.022400
     19 C15          6.7500    -5.3830     3.0440 c3         1 RQX       0.005900
     20 H1           0.1390     0.0640     2.3870 hc         1 RQX       0.035367
     21 H2           1.5100     0.8520     3.1790 hc         1 RQX       0.035367
     22 H3           1.4150    -0.9140     3.1250 hc         1 RQX       0.035367
     23 H4           1.2340     0.9170    -2.8580 hn         1 RQX       0.210800
     24 H5           0.3290    -0.3390    -2.3320 hn         1 RQX       0.210800
     25 H6           4.4120     1.9840    -2.1530 h1         1 RQX       0.020033
     26 H7           5.8030     0.9720    -2.5650 h1         1 RQX       0.020033
     27 H8           4.6220     1.4030    -3.8100 h1         1 RQX       0.020033
     28 H9           4.9460     0.5970     2.4820 hc         1 RQX       0.049200
     29 H10          3.4190     0.4380     3.3600 hc         1 RQX       0.049200
     30 H11          3.6270    -2.1400     3.1230 ha         1 RQX       0.116000
     31 H12          7.6900    -1.1020     3.3340 hc         1 RQX       0.019033
     32 H13          6.8110    -0.4610     1.9400 hc         1 RQX       0.019033
     33 H14          6.5140     0.2010     3.5530 hc         1 RQX       0.019033
     34 H15          6.8320    -3.0270     4.4090 hc         1 RQX       0.026700
     35 H16          5.1450    -3.5220     4.2190 hc         1 RQX       0.026700
     36 H17          5.5680    -4.0510     1.8400 hc         1 RQX       0.009700
     37 H18          7.2550    -3.5560     2.0300 hc         1 RQX       0.009700
     38 H19          7.5610    -5.3130     3.7600 hc         1 RQX       0.005033
     39 H20          7.0560    -6.0050     2.2120 hc         1 RQX       0.005033
     40 H21          5.8830    -5.8220     3.5230 hc         1 RQX       0.005033
     41 HN3          1.7170    -0.6290    -3.1290 hn         1 RQX       0.210800
@<TRIPOS>BOND
     1     1     2 2   
     2     2     3 1   
     3     2     5 1   
     4     3     4 1   
     5     3    12 2   
     6     4    20 1   
     7     4    21 1   
     8     4    22 1   
     9     5     6 1   
    10     5     7 2   
    11     6    23 1   
    12     6    24 1   
    13     6    41 1   
    14     7     8 1   
    15     7    10 1   
    16     8     9 1   
    17     9    25 1   
    18     9    26 1   
    19     9    27 1   
    20    10    11 2   
    21    10    12 1   
    22    12    13 1   
    23    13    14 1   
    24    13    28 1   
    25    13    29 1   
    26    14    15 2   
    27    14    30 1   
    28    15    16 1   
    29    15    17 1   
    30    16    31 1   
    31    16    32 1   
    32    16    33 1   
    33    17    18 1   
    34    17    34 1   
    35    17    35 1   
    36    18    19 1   
    37    18    36 1   
    38    18    37 1   
    39    19    38 1   
    40    19    39 1   
    41    19    40 1   
@<TRIPOS>SUBSTRUCTURE
     1 RQX         1 TEMP              0 ****  ****    0 ROOT
