@<TRIPOS>MOLECULE
molecule
   41    41     1     0     0
SMALL
bcc


@<TRIPOS>ATOM
      1 O2           0.0000     0.0000     0.0000 o          1 RQX      -0.474100
      2 C7           1.2150     0.0000     0.0000 c          1 RQX       0.576500
      3 C2           1.9550     0.0000     1.2790 cc         1 RQX      -0.083400
      4 C1           1.2020     0.0010     2.5840 c3         1 RQX      -0.057900
      5 C6           1.9550    -0.0070    -1.2810 cd         1 RQX      -0.222200
      6 N            1.2620    -0.0120    -2.4850 nz         1 RQX      -0.646400
      7 C5           3.3110    -0.0060    -1.2750 cc         1 RQX       0.175900
      8 O3           3.9950    -0.0120    -2.4500 os         1 RQX      -0.356900
      9 C8           4.7540     1.1580    -2.7640 c3         1 RQX       0.131700
     10 C4           4.0390    -0.0000     0.0020 c          1 RQX       0.524500
     11 O1           5.2540     0.0000     0.0090 o          1 RQX      -0.434100
     12 C3           3.2940     0.0000     1.2810 cd         1 RQX      -0.175400
     13 C9           4.0440     0.0070     2.5870 c3         1 RQX      -0.042000
     14 C10          4.4080    -1.4060     2.9650 c2         1 RQX      -0.500200
     15 C11          5.6560    -1.7170     3.2130 c2         1 RQX       0.093600
     16 C12          6.7440    -0.6980     2.9950 c3         1 RQX      -0.142900
     17 C13          6.0030    -3.0940     3.7150 c3         1 RQX      -0.056200
     18 C14          6.3970    -3.9840     2.5340 c3         1 RQX      -0.076400
     19 C15          6.7500    -5.3830     3.0440 c3         1 RQX      -0.091100
     20 H1           1.4430     0.8980     3.1400 hc         1 RQX       0.082700
     21 H2           1.4840    -0.8700     3.1640 hc         1 RQX       0.082700
     22 H3           0.1370    -0.0260     2.3870 hc         1 RQX       0.082700
     23 H4           1.2310     0.9170    -2.8560 hn         1 RQX       0.467800
     24 H5           0.3300    -0.3410    -2.3330 hn         1 RQX       0.467800
     25 H6           4.6400     1.3910    -3.8150 h1         1 RQX       0.071700
     26 H7           5.8000     0.9790    -2.5450 h1         1 RQX       0.071700
     27 H8           4.3980     1.9900    -2.1680 h1         1 RQX       0.071700
     28 H9           4.9460     0.5970     2.4820 hc         1 RQX       0.081700
     29 H10          3.4190     0.4380     3.3600 hc         1 RQX       0.081700
     30 H11          4.5050    -1.0440     1.9490 ha         1 RQX       0.288000
     31 H12          6.8480    -0.5020     1.9340 hc         1 RQX       0.062700
     32 H13          6.4880     0.2200     3.5090 hc         1 RQX       0.062700
     33 H14          7.6800    -1.0800     3.3840 hc         1 RQX       0.062700
     34 H15          6.8320    -3.0270     4.4090 hc         1 RQX       0.073700
     35 H16          5.1450    -3.5220     4.2190 hc         1 RQX       0.073700
     36 H17          7.2550    -3.5560     2.0300 hc         1 RQX       0.040200
     37 H18          5.5680    -4.0510     1.8400 hc         1 RQX       0.040200
     38 H19          5.8880    -5.8160     3.5380 hc         1 RQX       0.041033
     39 H20          7.5720    -5.3150     3.7470 hc         1 RQX       0.041033
     40 H21          7.0400    -6.0100     2.2090 hc         1 RQX       0.041033
     41 HN3          1.7300    -0.6110    -3.1370 hn         1 RQX       0.467800
@<TRIPOS>BOND
     1     9     8 1
     2     8     7 1
     3     7     5 2
     4     7    10 1
     5    11    10 2
     6     6     5 1
     7    19    18 1
     8     5     2 1
     9    10    12 1
    10    17    18 1
    11    17    15 1
    12     2     1 2
    13     2     3 1
    14    15    14 2
    15    15    16 1
    16    12     3 2
    17    12    13 1
    18    14    13 1
    19     3     4 1
    20     4    20 1
    21     4    21 1
    22     4    22 1
    23     6    23 1
    24     6    24 1
    25     9    25 1
    26     9    26 1
    27     9    27 1
    28    13    28 1
    29    13    29 1
    30    14    30 1
    31    16    31 1
    32    16    32 1
    33    16    33 1
    34    17    34 1
    35    17    35 1
    36    18    36 1
    37    18    37 1
    38    19    38 1
    39    19    39 1
    40    19    40 1
    41    41     6 1
@<TRIPOS>SUBSTRUCTURE
     1 RQX         1 TEMP              0 ****  ****    0 ROOT
