@<TRIPOS>MOLECULE
molecule
   53    56     1     0     0
SMALL
bcc


@<TRIPOS>ATOM
      1 O89          0.0000     0.0000     0.0000 o          1 RR1      -0.714867
      2 O90          1.9070    -1.2620    -0.5260 o          1 RR1      -0.714867
      3 O92          1.9070     1.2630    -0.5260 o          1 RR1      -0.714867
      4 S85          1.5210     0.0000     0.0000 s6         1 RR1       1.338100
      5 C10          2.0490     0.0000     1.6800 ca         1 RR1      -0.225500
      6 C11          2.2560    -1.1940     2.3400 ca         1 RR1      -0.066000
      7 C12          2.6720    -1.1960     3.6600 ca         1 RR1      -0.185000
      8 C13          2.8870    -0.0030     4.3260 ca         1 RR1      -0.138000
      9 C14          2.6890     1.1980     3.6780 ca         1 RR1      -0.142000
     10 C4           2.2700     1.2090     2.3460 ca         1 RR1       0.201400
     11 C5           1.6560     4.6940     0.3360 ca         1 RR1       0.109100
     12 C3           2.0740     4.6910     1.6690 ca         1 RR1       0.136400
     13 C9           2.2940     5.9060     2.3470 ca         1 RR1      -0.222500
     14 C8           2.1050     7.0950     1.7240 ca         1 RR1      -0.049000
     15 C7           1.6820     7.1320     0.3810 ca         1 RR1      -0.049000
     16 C6           1.4510     5.9210    -0.3170 ca         1 RR1      -0.051000
     17 C15          1.0340     5.9670    -1.6640 ca         1 RR1       0.110600
     18 C16          0.8480     7.1900    -2.2760 ca         1 RR1      -0.040000
     19 C17          1.0730     8.3720    -1.5780 ca         1 RR1      -0.265500
     20 C18          1.4810     8.3550    -0.2780 ca         1 RR1      -0.035000
     21 S36          0.8260     9.9160    -2.3900 s6         1 RR1       1.340100
     22 S35          2.8230     5.8800     4.0270 s6         1 RR1       1.336100
     23 N1           2.0720     2.3950     1.6960 ne         1 RR1      -0.193400
     24 N2           2.2730     3.5090     2.3140 nf         1 RR1      -0.170400
     25 N19          0.8070     4.7870    -2.3690 nu         1 RR1      -0.714300
     26 C20         -0.3000     4.6750    -3.1900 ca         1 RR1       1.008900
     27 N21         -0.4720     3.5820    -3.9270 nb         1 RR1      -0.870000
     28 C22         -1.5360     3.4750    -4.7160 ca         1 RR1       1.002400
     29 N23         -2.4280     4.4590    -4.7680 nb         1 RR1      -0.940000
     30 C24         -2.2550     5.5510    -4.0300 ca         1 RR1       1.002400
     31 N25         -1.1880     5.6620    -3.2450 nb         1 RR1      -0.870000
     32 NL1         -3.1810     6.5740    -4.0840 nv         1 RR1      -1.027500
     33 NL2         -1.7150     2.3410    -5.4830 nv         1 RR1      -1.027500
     34 H11          2.0920    -2.1320     1.8230 ha         1 RR1       0.133000
     35 H12          2.8290    -2.1370     4.1740 ha         1 RR1       0.085000
     36 H13          3.2110    -0.0120     5.3590 ha         1 RR1       0.097000
     37 H14          2.9190     2.1290     4.1810 ha         1 RR1       0.193000
     38 HC8          2.2790     8.0200     2.2610 ha         1 RR1       0.151000
     39 H16          0.5250     7.2300    -3.3090 ha         1 RR1       0.156000
     40 H18          1.6510     9.2870     0.2480 ha         1 RR1       0.148000
     41 H28          2.2410     3.2590    -0.7460 ho         1 RR1       0.440000
     42 H19          1.4770     4.0450    -2.3300 hn         1 RR1       0.479800
     43 HL11        -3.8620     6.6710    -3.3570 hn         1 RR1       0.437550
     44 HL12        -3.1860     7.2040    -4.8610 hn         1 RR1       0.437550
     45 HL21        -1.0440     1.6000    -5.4450 hn         1 RR1       0.437550
     46 HL22        -2.5160     2.2600    -6.0780 hn         1 RR1       0.437550
     47 O28          1.4450     3.5260    -0.3160 oh         1 RR1      -0.455100
     48 O37         -0.6220    10.3220    -2.1660 o          1 RR1      -0.726533
     49 O38          1.6080    10.8600    -1.6700 o          1 RR1      -0.726533
     50 O41          0.9400     9.6440    -3.7800 o          1 RR1      -0.726533
     51 O39          1.5750     5.8800     4.8970 o          1 RR1      -0.719200
     52 O40          3.4280     4.6090     4.2220 o          1 RR1      -0.719200
     53 O42          3.4520     7.1340     4.2540 o          1 RR1      -0.719200
@<TRIPOS>BOND
     1     1     4 1
     2     2     4 1
     3     3     4 1
     4     4     5 1
     5     5     6 ar
     6     5    10 ar
     7     6     7 ar
     8     6    34 1
     9     7     8 ar
    10     7    35 1
    11     8     9 ar
    12     8    36 1
    13     9    10 ar
    14     9    37 1
    15    10    23 1
    16    11    12 ar
    17    11    16 ar
    18    11    47 1
    19    12    13 ar
    20    12    24 1
    21    13    14 ar
    22    13    22 1
    23    14    15 ar
    24    14    38 1
    25    15    16 ar
    26    15    20 ar
    27    16    17 ar
    28    17    18 ar
    29    17    25 1
    30    18    19 ar
    31    18    39 1
    32    19    20 ar
    33    19    21 1
    34    20    40 1
    35    47    41 1
    36    48    21 1
    37    49    21 1
    38    50    21 1
    39    51    22 1
    40    52    22 1
    41    53    22 1
    42    23    24 2
    43    25    26 1
    44    25    42 1
    45    26    27 ar
    46    26    31 ar
    47    27    28 ar
    48    28    29 ar
    49    28    33 1
    50    29    30 ar
    51    30    31 ar
    52    30    32 1
    53    32    43 1
    54    32    44 1
    55    33    45 1
    56    33    46 1
@<TRIPOS>SUBSTRUCTURE
     1 RR1         1 TEMP              0 ****  ****    0 ROOT
