@<TRIPOS>MOLECULE
RR1
   53    56     1     0     0
SMALL
bcc


@<TRIPOS>ATOM
      1 O89          0.0000     0.0000     0.0000 o          1 RR1      -0.661533
      2 O90          1.9070    -1.2620    -0.5260 o          1 RR1      -0.661533
      3 O92          1.9070     1.2630    -0.5260 o          1 RR1      -0.661533
      4 S85          1.5210     0.0000     0.0000 s6         1 RR1       1.034100
      5 C10          2.0490     0.0000     1.6800 ca         1 RR1      -0.074500
      6 C11          2.2560    -1.1940     2.3400 ca         1 RR1      -0.038000
      7 C12          2.6720    -1.1960     3.6600 ca         1 RR1      -0.183000
      8 C13          2.8870    -0.0030     4.3260 ca         1 RR1      -0.112000
      9 C14          2.6890     1.1980     3.6780 ca         1 RR1      -0.141000
     10 C4           2.2700     1.2090     2.3460 ca         1 RR1       0.184400
     11 C5           1.6560     4.6940     0.3360 ca         1 RR1       0.106100
     12 C3           2.0740     4.6910     1.6690 ca         1 RR1       0.097400
     13 C9           2.2940     5.9060     2.3470 ca         1 RR1      -0.065500
     14 C8           2.1050     7.0950     1.7240 ca         1 RR1      -0.030000
     15 C7           1.6820     7.1320     0.3810 ca         1 RR1      -0.064000
     16 C6           1.4510     5.9210    -0.3170 ca         1 RR1      -0.053000
     17 C15          1.0340     5.9670    -1.6640 ca         1 RR1      -0.072400
     18 C16          0.8480     7.1900    -2.2760 ca         1 RR1      -0.007000
     19 C17          1.0730     8.3720    -1.5780 ca         1 RR1      -0.108500
     20 C18          1.4810     8.3550    -0.2780 ca         1 RR1       0.000000
     21 S36          0.8260     9.9160    -2.3900 s6         1 RR1       1.034100
     22 S35          2.8230     5.8800     4.0270 s6         1 RR1       1.031100
     23 N1           2.0720     2.3950     1.6960 ne         1 RR1      -0.162400
     24 N2           2.2730     3.5090     2.3140 nf         1 RR1      -0.100400
     25 N19          0.8070     4.7870    -2.3690 nu         1 RR1      -0.225300
     26 C20         -0.3000     4.6750    -3.1900 ca         1 RR1       0.768900
     27 N21         -0.4720     3.5820    -3.9270 nb         1 RR1      -0.776500
     28 C22         -1.5360     3.4750    -4.7160 ca         1 RR1       0.788900
     29 N23         -2.4280     4.4590    -4.7680 nb         1 RR1      -0.857000
     30 C24         -2.2550     5.5510    -4.0300 ca         1 RR1       0.788900
     31 N25         -1.1880     5.6620    -3.2450 nb         1 RR1      -0.776500
     32 NL1         -3.1810     6.5740    -4.0840 nv         1 RR1      -0.573000
     33 NL2         -1.7150     2.3410    -5.4830 nv         1 RR1      -0.573000
     34 H11          2.0920    -2.1320     1.8230 ha         1 RR1       0.108000
     35 H12          2.8290    -2.1370     4.1740 ha         1 RR1       0.067000
     36 H13          3.2110    -0.0120     5.3590 ha         1 RR1       0.075000
     37 H14          2.7960     2.1300     4.2200 ha         1 RR1       0.173000
     38 HC8          2.2790     8.0200     2.2610 ha         1 RR1       0.125000
     39 H16          0.5250     7.2300    -3.3090 ha         1 RR1       0.133000
     40 H18          1.6510     9.2870     0.2480 ha         1 RR1       0.122000
     41 H28          2.2400     3.2590    -0.7470 ho         1 RR1       0.433000
     42 H19          1.4750     4.0440    -2.3280 hn         1 RR1       0.311800
     43 HL11        -3.8620     6.6710    -3.3570 hn         1 RR1       0.266550
     44 HL12        -3.1870     7.2040    -4.8620 hn         1 RR1       0.266550
     45 HL21        -1.0440     1.6000    -5.4440 hn         1 RR1       0.266550
     46 HL22        -2.5160     2.2600    -6.0780 hn         1 RR1       0.266550
     47 O28          1.4450     3.5260    -0.3160 oh         1 RR1      -0.447100
     48 O37         -0.6220    10.3220    -2.1660 o          1 RR1      -0.672867
     49 O38          1.6080    10.8600    -1.6700 o          1 RR1      -0.672867
     50 O41          0.9400     9.6440    -3.7800 o          1 RR1      -0.672867
     51 O39          1.5750     5.8800     4.8970 o          1 RR1      -0.667533
     52 O40          3.4280     4.6090     4.2220 o          1 RR1      -0.667533
     53 O42          3.4520     7.1340     4.2540 o          1 RR1      -0.667533
@<TRIPOS>BOND
     1     1     4 1   
     2     2     4 1   
     3     3     4 1   
     4     4     5 1   
     5     5     6 ar  
     6     5    10 ar  
     7     6     7 ar  
     8     6    34 1   
     9     7     8 ar  
    10     7    35 1   
    11     8     9 ar  
    12     8    36 1   
    13     9    10 ar  
    14     9    37 1   
    15    10    23 1   
    16    11    12 ar  
    17    11    16 ar  
    18    11    47 1   
    19    12    13 ar  
    20    12    24 1   
    21    13    14 ar  
    22    13    22 1   
    23    14    15 ar  
    24    14    38 1   
    25    15    16 ar  
    26    15    20 ar  
    27    16    17 ar  
    28    17    18 ar  
    29    17    25 1   
    30    18    19 ar  
    31    18    39 1   
    32    19    20 ar  
    33    19    21 1   
    34    20    40 1   
    35    21    48 1   
    36    21    49 1   
    37    21    50 1   
    38    22    51 1   
    39    22    52 1   
    40    22    53 1   
    41    23    24 2   
    42    25    26 1   
    43    25    42 1   
    44    26    27 ar  
    45    26    31 ar  
    46    27    28 ar  
    47    28    29 ar  
    48    28    33 1   
    49    29    30 ar  
    50    30    31 ar  
    51    30    32 1   
    52    32    43 1   
    53    32    44 1   
    54    33    45 1   
    55    33    46 1   
    56    41    47 1   
@<TRIPOS>SUBSTRUCTURE
     1 RR1         1 TEMP              0 ****  ****    0 ROOT
