@<TRIPOS>MOLECULE
RR8
   58    61     1     0     0
SMALL
bcc


@<TRIPOS>ATOM
      1 S1           0.0000     0.0000     0.0000 s6         1 RR8       0.985900
      2 C2           3.7380     0.0000     1.5330 c3         1 RR8      -0.128700
      3 C3           3.9720     0.0000     0.0000 c3         1 RR8      -0.125700
      4 N4           1.6080    -0.1240     0.3760 n3         1 RR8      -0.567500
      5 C5           4.5280     1.1010     2.1940 c          1 RR8       0.584100
      6 N6           7.7170     5.0440     6.0220 n          1 RR8       0.245800
      7 C7           5.1670    -0.8420    -0.3640 c          1 RR8       0.578100
      8 C8           2.6610    -0.6460    -0.5150 c3         1 RR8       0.249800
      9 C9           2.2220     0.2700     1.6520 c3         1 RR8       0.256800
     10 C10          8.7450     4.6330     6.7880 c          1 RR8       0.575700
     11 C11          6.8980     4.0950     5.3960 ca         1 RR8      -0.131400
     12 N12          4.4610     1.2700     3.5290 ns         1 RR8      -0.010100
     13 C13          5.7330     3.6650     6.0190 ca         1 RR8      -0.082000
     14 N14          5.5350    -0.9670    -1.6540 ns         1 RR8      -0.021100
     15 C15          5.2790     2.2190     4.1570 ca         1 RR8      -0.092400
     16 C16          4.9250     2.7300     5.4010 ca         1 RR8       0.065900
     17 O17         -0.4730     1.0560     0.8250 o          1 RR8      -0.577800
     18 O18         -0.0210     0.1100    -1.4160 o          1 RR8      -0.577800
     19 C19          7.4620     6.3680     5.8530 cc         1 RR8      -0.140400
     20 O20          5.2240     1.8340     1.5230 o          1 RR8      -0.634100
     21 O21          5.7990    -1.4060     0.5040 o          1 RR8      -0.639100
     22 C22          9.5720     5.5780     7.4190 cc         1 RR8      -0.238200
     23 O23          8.9580     3.4400     6.9350 o          1 RR8      -0.693500
     24 C24          7.2470     3.5890     4.1510 ca         1 RR8      -0.051000
     25 C25          6.4410     2.6540     3.5340 ca         1 RR8      -0.103000
     26 C26          8.2360     7.3030     6.4520 cd         1 RR8      -0.211000
     27 C27          9.3210     6.9080     7.2470 cd         1 RR8      -0.022000
     28 C28          6.5800    -1.8310    -2.0030 ca         1 RR8      -0.096400
     29 C29         -0.7110    -1.5840     0.5260 c3         1 RR8       0.014700
     30 F30          3.7920     2.3100     6.0060 f          1 RR8      -0.125900
     31 C31          8.6470    -3.5370    -2.6930 ca         1 RR8      -0.045600
     32 Cl3          9.9440    -4.6080    -3.1260 cl         1 RR8      -0.028400
     33 C34          6.5270    -2.5420    -3.1950 ca         1 RR8      -0.107500
     34 C33          7.6750    -1.9740    -1.1600 ca         1 RR8      -0.107500
     35 C36          8.7050    -2.8270    -1.5070 ca         1 RR8      -0.080500
     36 C35          7.5600    -3.3930    -3.5360 ca         1 RR8      -0.080500
     37 H291        -0.4660    -1.7630     1.5660 h1         1 RR8       0.062700
     38 H292        -1.7880    -1.5530     0.4100 h1         1 RR8       0.062700
     39 H293        -0.3050    -2.3830    -0.0830 h1         1 RR8       0.062700
     40 H2           3.9860    -0.9660     1.9560 hc         1 RR8       0.074700
     41 H3           4.0740     1.0120    -0.3730 hc         1 RR8       0.080700
     42 H91C         2.0490     1.3240     1.8340 h1         1 RR8       0.015700
     43 H92C         1.8060    -0.3220     2.4590 h1         1 RR8       0.015700
     44 H81C         2.7180    -1.7250    -0.4380 h1         1 RR8       0.020700
     45 H82C         2.4710    -0.3440    -1.5380 h1         1 RR8       0.020700
     46 H12          3.8260     0.7200     4.0720 hn         1 RR8       0.178500
     47 H19          6.6270     6.6780     5.2360 h4         1 RR8       0.130000
     48 H14          4.9900    -0.5310    -2.3720 hn         1 RR8       0.170500
     49 H22         10.4030     5.2530     8.0340 ha         1 RR8       0.136000
     50 H13          5.4570     4.0630     6.9880 ha         1 RR8       0.127000
     51 H24          8.1540     3.9280     3.6640 ha         1 RR8       0.117000
     52 H25          6.7150     2.2610     2.5620 ha         1 RR8       0.171000
     53 H26          8.0240     8.3560     6.3080 ha         1 RR8       0.121000
     54 H27          9.9460     7.6500     7.7280 ha         1 RR8       0.105000
     55 H33          7.7210    -1.4190    -0.2320 ha         1 RR8       0.128000
     56 H34          5.6760    -2.4290    -3.8560 ha         1 RR8       0.128000
     57 H35          7.5190    -3.9470    -4.4660 ha         1 RR8       0.115500
     58 H36          9.5590    -2.9390    -0.8500 ha         1 RR8       0.115500
@<TRIPOS>BOND
     1     1     4 1   
     2     1    17 2   
     3     1    18 2   
     4     1    29 1   
     5     2     3 1   
     6     2     5 1   
     7     2     9 1   
     8     2    40 1   
     9     3     7 1   
    10     3     8 1   
    11     3    41 1   
    12     4     8 1   
    13     4     9 1   
    14     5    12 1   
    15     5    20 2   
    16     6    10 1   
    17     6    11 1   
    18     6    19 1   
    19     7    14 1   
    20     7    21 2   
    21     8    44 1   
    22     8    45 1   
    23     9    42 1   
    24     9    43 1   
    25    10    22 1   
    26    10    23 2   
    27    11    13 ar  
    28    11    24 ar  
    29    12    15 1   
    30    12    46 1   
    31    13    16 ar  
    32    13    50 1   
    33    14    28 1   
    34    14    48 1   
    35    15    16 ar  
    36    15    25 ar  
    37    16    30 1   
    38    19    26 2   
    39    19    47 1   
    40    22    27 2   
    41    22    49 1   
    42    24    25 ar  
    43    24    51 1   
    44    25    52 1   
    45    26    27 1   
    46    26    53 1   
    47    27    54 1   
    48    28    33 ar  
    49    28    34 ar  
    50    29    37 1   
    51    29    38 1   
    52    29    39 1   
    53    31    32 1   
    54    31    35 ar  
    55    31    36 ar  
    56    33    36 ar  
    57    33    56 1   
    58    34    35 ar  
    59    34    55 1   
    60    35    58 1   
    61    36    57 1   
@<TRIPOS>SUBSTRUCTURE
     1 RR8         1 TEMP              0 ****  ****    0 ROOT
