@<TRIPOS>MOLECULE
RRA
   10     9     1     0     0
SMALL
bcc


@<TRIPOS>ATOM
      1 N03          0.0000     0.0000     0.0000 nz         1 RRA       0.061400
      2 C37          1.4690     0.0000     0.0000 c3         1 RRA       0.129900
      3 C38          1.9590     0.0000     1.3870 c1         1 RRA      -0.349100
      4 C39          2.3580     0.0190     2.4920 c1         1 RRA       0.129500
      5 HN03        -0.3340    -0.0010    -0.9440 hn         1 RRA       0.236133
      6 HN0A        -0.3340    -0.8160     0.4730 hn         1 RRA       0.236133
      7 H37          1.8300    -0.8850    -0.5110 hx         1 RRA       0.079700
      8 H37A         1.8300     0.8850    -0.5110 hx         1 RRA       0.079700
      9 H39          2.7250     0.0170     3.5110 ha         1 RRA       0.160500
     10 H033        -0.1180     0.9180     0.3810 hn         1 RRA       0.236133
@<TRIPOS>BOND
     1     1     2 1   
     2     1     5 1   
     3     1     6 1   
     4     1    10 1   
     5     2     3 1   
     6     2     7 1   
     7     2     8 1   
     8     3     4 3   
     9     4     9 1   
@<TRIPOS>SUBSTRUCTURE
     1 RRA         1 TEMP              0 ****  ****    0 ROOT
