@<TRIPOS>MOLECULE
RRC
   52    54     1     0     0
SMALL
bcc


@<TRIPOS>ATOM
      1 OAP          0.0000     0.0000     0.0000 oh         1 RRC      -0.596800
      2 CAQ          1.4290     0.0000     0.0000 c3         1 RRC       0.201400
      3 CAR          1.9380     0.0000     1.4420 c3         1 RRC       0.128500
      4 CAK          1.4280     1.2500     2.1630 c3         1 RRC      -0.040400
      5 CAI          1.9370     1.2510     3.6050 c3         1 RRC       0.000900
      6 NAS          1.4500    -1.1950     2.1330 nu         1 RRC      -0.472900
      7 CAT          2.1990    -2.3610     2.1140 ca         1 RRC       0.777900
      8 NAU          1.7380    -3.4260     2.7490 nb         1 RRC      -0.756000
      9 CAV          2.4260    -4.5630     2.7490 ca         1 RRC       0.316800
     10 NAW          2.2360    -5.8090     3.2890 na         1 RRC       0.207000
     11 CAZ          1.0860    -6.2400     4.0890 c3         1 RRC      -0.063000
     12 CAY          0.3870    -7.4080     3.3890 c3         1 RRC      -0.011100
     13 CBA          1.5660    -6.6870     5.4700 c3         1 RRC      -0.011100
     14 CAX          3.3120    -6.5730     2.9450 cc         1 RRC       0.214700
     15 CAN          3.6560    -4.6180     2.0720 ca         1 RRC      -0.295200
     16 NAO          4.1450    -5.8730     2.2320 nd         1 RRC      -0.483100
     17 NAL          3.3550    -2.3690     1.4630 nb         1 RRC      -0.801000
     18 CAM          4.1080    -3.4600     1.4160 ca         1 RRC       0.639200
     19 NAJ          5.3120    -3.4590     0.7350 nu         1 RRC      -0.474900
     20 CAD          5.7690    -2.2440     0.0560 c3         1 RRC       0.221100
     21 CAE          7.0980    -2.5050    -0.6040 ca         1 RRC      -0.125300
     22 CAG          7.1430    -2.9710    -1.9040 ca         1 RRC      -0.082500
     23 CAH          8.3630    -3.2120    -2.5100 ca         1 RRC      -0.102000
     24 CAF          9.5350    -2.9860    -1.8160 ca         1 RRC      -0.093000
     25 CAC          9.4900    -2.5190    -0.5150 ca         1 RRC      -0.102000
     26 CAB          8.2700    -2.2740     0.0890 ca         1 RRC      -0.082500
     27 HAP         -0.3140     0.0080    -0.8890 ho         1 RRC       0.391000
     28 HAQ1         1.7900    -0.8850    -0.5110 h1         1 RRC      -0.004800
     29 HAQ2         1.7900     0.8850    -0.5110 h1         1 RRC      -0.004800
     30 HAR          3.0210     0.0000     1.4420 h1         1 RRC       0.061700
     31 HAK1         1.7890     2.1340     1.6520 hc         1 RRC       0.025700
     32 HAK2         0.3440     1.2500     2.1620 hc         1 RRC       0.025700
     33 HAI1         2.9710     0.9280     3.6230 hc         1 RRC       0.003700
     34 HAI2         1.3370     0.5740     4.2010 hc         1 RRC       0.003700
     35 HAI3         1.8640     2.2520     4.0130 hc         1 RRC       0.003700
     36 HAS          0.5620    -1.1790     2.5940 hn         1 RRC       0.306800
     37 HAZ          0.3920    -5.4150     4.1970 h1         1 RRC       0.063700
     38 HAY1         1.0090    -8.2930     3.4550 hc         1 RRC       0.013700
     39 HAY2        -0.5650    -7.5990     3.8700 hc         1 RRC       0.013700
     40 HAY3         0.2220    -7.1590     2.3480 hc         1 RRC       0.013700
     41 HBA1         0.7120    -6.8180     6.1240 hc         1 RRC       0.013700
     42 HBA2         2.1000    -7.6250     5.3810 hc         1 RRC       0.013700
     43 HBA3         2.2250    -5.9340     5.8850 hc         1 RRC       0.013700
     44 HAX          3.4530    -7.6110     3.2240 h5         1 RRC       0.030800
     45 HAJ          5.8710    -4.2890     0.7060 hn         1 RRC       0.313800
     46 HAD1         5.0430    -1.9560    -0.6950 h1         1 RRC       0.025700
     47 HAD2         5.8760    -1.4450     0.7790 h1         1 RRC       0.025700
     48 HAG          6.2240    -3.1480    -2.4490 ha         1 RRC       0.108000
     49 HAH          8.3990    -3.5770    -3.5290 ha         1 RRC       0.104000
     50 HAF         10.4900    -3.1760    -2.2900 ha         1 RRC       0.103000
     51 HAC         10.4090    -2.3390     0.0290 ha         1 RRC       0.104000
     52 HAB          8.2340    -1.9080     1.1080 ha         1 RRC       0.108000
@<TRIPOS>BOND
     1     1     2 1   
     2     1    27 1   
     3     2     3 1   
     4     2    28 1   
     5     2    29 1   
     6     3     4 1   
     7     3     6 1   
     8     3    30 1   
     9     4     5 1   
    10     4    31 1   
    11     4    32 1   
    12     5    33 1   
    13     5    34 1   
    14     5    35 1   
    15     6     7 1   
    16     6    36 1   
    17     7     8 ar  
    18     7    17 ar  
    19     8     9 ar  
    20     9    10 1   
    21     9    15 ar  
    22    10    11 1   
    23    10    14 1   
    24    11    12 1   
    25    11    13 1   
    26    11    37 1   
    27    12    38 1   
    28    12    39 1   
    29    12    40 1   
    30    13    41 1   
    31    13    42 1   
    32    13    43 1   
    33    14    16 2   
    34    14    44 1   
    35    15    16 1   
    36    15    18 ar  
    37    17    18 ar  
    38    18    19 1   
    39    19    20 1   
    40    19    45 1   
    41    20    21 1   
    42    20    46 1   
    43    20    47 1   
    44    21    22 ar  
    45    21    26 ar  
    46    22    23 ar  
    47    22    48 1   
    48    23    24 ar  
    49    23    49 1   
    50    24    25 ar  
    51    24    50 1   
    52    25    26 ar  
    53    25    51 1   
    54    26    52 1   
@<TRIPOS>SUBSTRUCTURE
     1 RRC         1 TEMP              0 ****  ****    0 ROOT
