@<TRIPOS>MOLECULE
RRG
   50    52     1     0     0
SMALL
bcc


@<TRIPOS>ATOM
      1 CAA         0.0800    0.0250    0.4510 c3        1 RRG     -0.083100
      2 CAZ         1.5870   -0.1360    0.3730 c3        1 RRG     -0.034400
      3 CAB         2.1730   -0.3170    1.7610 c3        1 RRG     -0.083100
      4 CAY         1.9580   -1.2780   -0.5230 ca        1 RRG     -0.064300
      5 CAM         1.5980   -2.5810   -0.1500 ca        1 RRG     -0.133000
      6 CAI         1.9500   -3.6760   -0.9320 ca        1 RRG     -0.146000
      7 CAH         2.6780   -3.4820   -2.1060 ca        1 RRG     -0.140000
      8 CAL         3.0370   -2.1950   -2.4910 ca        1 RRG     -0.126000
      9 CAX         2.6750   -1.0790   -1.7170 cp        1 RRG      0.004000
     10 CAW         3.0710    0.2440   -2.2010 cp        1 RRG     -0.123000
     11 CAQ         4.4260    0.5370   -2.4140 ca        1 RRG     -0.093000
     12 CAO         4.8250    1.7750   -2.9030 ca        1 RRG     -0.193500
     13 CAP         2.1100    1.2230   -2.4910 ca        1 RRG     -0.093000
     14 CAN         2.4870    2.4620   -2.9920 ca        1 RRG     -0.193500
     15 CAV         3.8530    2.7430   -3.2050 ca        1 RRG      0.168100
     16 OAS         4.1200    4.0000   -3.6780 os        1 RRG     -0.325900
     17 CBA         5.4070    4.2100   -4.3040 c3        1 RRG      0.015100
     18 CAT         6.5100    4.5450   -3.2520 c         1 RRG      0.904600
     19 OAD         7.3130    3.6090   -2.9740 o         1 RRG     -0.820300
     20 OAC         6.5690    5.7120   -2.7900 o         1 RRG     -0.820300
     21 CAR         5.1930    5.3900   -5.2490 c3        1 RRG     -0.044100
     22 CAU         4.8640    4.9810   -6.6400 ca        1 RRG     -0.050300
     23 CAJ         3.6310    5.3140   -7.2130 ca        1 RRG     -0.131500
     24 CAF         3.3380    4.9470   -8.5260 ca        1 RRG     -0.137500
     25 CAE         4.2740    4.2420   -9.2810 ca        1 RRG     -0.154000
     26 CAG         5.5040    3.9030   -8.7180 ca        1 RRG     -0.137500
     27 CAK         5.7980    4.2690   -7.4070 ca        1 RRG     -0.131500
     28 H1         -0.1770    0.8900    1.1090 hc        1 RRG      0.031033
     29 H2         -0.3410    0.2130   -0.5660 hc        1 RRG      0.031033
     30 H3         -0.3970   -0.8940    0.8690 hc        1 RRG      0.031033
     31 H4          2.0170    0.8180   -0.0550 hc        1 RRG      0.083700
     32 H5          3.2820   -0.4330    1.6990 hc        1 RRG      0.031033
     33 H6          1.9420    0.5760    2.3900 hc        1 RRG      0.031033
     34 H7          1.7490   -1.2210    2.2600 hc        1 RRG      0.031033
     35 H8          1.0300   -2.7360    0.7790 ha        1 RRG      0.122000
     36 H9          1.6580   -4.6900   -0.6240 ha        1 RRG      0.117000
     37 H10         2.9680   -4.3430   -2.7240 ha        1 RRG      0.120000
     38 H11         3.6120   -2.0360   -3.4160 ha        1 RRG      0.137000
     39 H12         5.1870   -0.2220   -2.1790 ha        1 RRG      0.121500
     40 H13         5.9000    2.0200   -3.0200 ha        1 RRG      0.172000
     41 H14         1.0450    1.0030   -2.3240 ha        1 RRG      0.121500
     42 H15         1.7380    3.2310   -3.2210 ha        1 RRG      0.172000
     43 H16         5.7010    3.2860   -4.8710 h1        1 RRG      0.042700
     44 H18         4.3840    6.0440   -4.8260 hc        1 RRG      0.075700
     45 H19         6.1400    5.9970   -5.2510 hc        1 RRG      0.075700
     46 H20         2.8870    5.8640   -6.6170 ha        1 RRG      0.137500
     47 H21         2.3650    5.2110   -8.9640 ha        1 RRG      0.116500
     48 H22         4.0420    3.9510  -10.3150 ha        1 RRG      0.113000
     49 H23         6.2430    3.3440   -9.3090 ha        1 RRG      0.116500
     50 H24         6.7670    3.9990   -6.9580 ha        1 RRG      0.137500
@<TRIPOS>BOND
     1    1    2 1   
     2    1   28 1   
     3    1   29 1   
     4    1   30 1   
     5    2    3 1   
     6    2    4 1   
     7    2   31 1   
     8    3   32 1   
     9    3   33 1   
    10    3   34 1   
    11    4    5 ar  
    12    4    9 ar  
    13    5    6 ar  
    14    5   35 1   
    15    6    7 ar  
    16    6   36 1   
    17    7    8 ar  
    18    7   37 1   
    19    8    9 ar  
    20    8   38 1   
    21    9   10 1   
    22   10   11 ar  
    23   10   13 ar  
    24   11   12 ar  
    25   11   39 1   
    26   12   15 ar  
    27   12   40 1   
    28   13   14 ar  
    29   13   41 1   
    30   14   15 ar  
    31   14   42 1   
    32   15   16 1   
    33   16   17 1   
    34   17   18 1   
    35   17   21 1   
    36   17   43 1   
    37   18   19 1   
    38   18   20 1   
    39   21   22 1   
    40   21   44 1   
    41   21   45 1   
    42   22   23 ar  
    43   22   27 ar  
    44   23   24 ar  
    45   23   46 1   
    46   24   25 ar  
    47   24   47 1   
    48   25   26 ar  
    49   25   48 1   
    50   26   27 ar  
    51   26   49 1   
    52   27   50 1   
@<TRIPOS>SUBSTRUCTURE
     1 RRG         1 TEMP              0 ****  ****    0 ROOT
