@<TRIPOS>MOLECULE
molecule
   50    52     1     0     0
SMALL
bcc


@<TRIPOS>ATOM
      1 CAA          0.0000     0.0000     0.0000 c3         1 RRG      -0.083100
      2 CAZ          1.5300     0.0000     0.0000 c3         1 RRG      -0.043400
      3 CAB          2.0400     0.0000     1.4420 c3         1 RRG      -0.083100
      4 CAY          2.0310    -1.2310    -0.7090 ca         1 RRG      -0.069300
      5 CAM          1.6980    -2.4840    -0.2390 ca         1 RRG      -0.128000
      6 CAI          2.1570    -3.6160    -0.8890 ca         1 RRG      -0.147000
      7 CAH          2.9540    -3.4970    -2.0140 ca         1 RRG      -0.138000
      8 CAL          3.2930    -2.2490    -2.4940 ca         1 RRG      -0.124000
      9 CAX          2.8290    -1.1060    -1.8470 cp         1 RRG       0.000000
     10 CAW          3.1900     0.2390    -2.3570 cp         1 RRG      -0.125000
     11 CAQ          4.5210     0.5460    -2.6340 ca         1 RRG      -0.083000
     12 CAO          4.8530     1.7970    -3.1100 ca         1 RRG      -0.195500
     13 CAP          2.1980     1.1950    -2.5680 ca         1 RRG      -0.083000
     14 CAN          2.5360     2.4430    -3.0490 ca         1 RRG      -0.195500
     15 CAV          3.8640     2.7500    -3.3130 ca         1 RRG       0.203100
     16 OAS          4.1940     3.9810    -3.7860 os         1 RRG      -0.312900
     17 CBA          5.5600     4.1900    -4.1500 c3         1 RRG       0.032100
     18 CAT          6.3530     4.5680    -2.9260 c          1 RRG       0.867600
     19 OAD          5.8050     4.6490    -1.8520 o          1 RRG      -0.825800
     20 OAC          7.6690     4.8150    -3.0280 o          1 RRG      -0.825800
     21 CAR          5.6460     5.3160    -5.1810 c3         1 RRG      -0.020100
     22 CAU          4.9560     4.8890    -6.4520 ca         1 RRG      -0.066300
     23 CAJ          3.6090     5.1450    -6.6260 ca         1 RRG      -0.121500
     24 CAF          2.9760     4.7510    -7.7900 ca         1 RRG      -0.138000
     25 CAE          3.6910     4.1030    -8.7800 ca         1 RRG      -0.150000
     26 CAG          5.0380     3.8470    -8.6060 ca         1 RRG      -0.138000
     27 CAK          5.6720     4.2460    -7.4430 ca         1 RRG      -0.121500
     28 H1          -0.3610    -0.6570     0.7820 hc         1 RRG       0.031700
     29 H2          -0.3610     1.0060     0.1780 hc         1 RRG       0.031700
     30 H3          -0.3610    -0.3490    -0.9600 hc         1 RRG       0.031700
     31 H4           1.8910     0.8840    -0.5110 hc         1 RRG       0.091700
     32 H5           1.8310     0.9600     1.8990 hc         1 RRG       0.031700
     33 H6           1.5420    -0.7830     2.0020 hc         1 RRG       0.031700
     34 H7           3.1090    -0.1770     1.4470 hc         1 RRG       0.031700
     35 H8           1.0750    -2.5830     0.6420 ha         1 RRG       0.122000
     36 H9           1.8930    -4.5980    -0.5160 ha         1 RRG       0.115000
     37 H10          3.3120    -4.3870    -2.5180 ha         1 RRG       0.118000
     38 H11          3.9150    -2.1570    -3.3770 ha         1 RRG       0.134000
     39 H12          5.2930    -0.1960    -2.4750 ha         1 RRG       0.123500
     40 H13          5.8880     2.0380    -3.3210 ha         1 RRG       0.147500
     41 H14          1.1620     0.9560    -2.3620 ha         1 RRG       0.123500
     42 H15          1.7660     3.1880    -3.2110 ha         1 RRG       0.147500
     43 H16          5.9650     3.2800    -4.5750 h1         1 RRG       0.042700
     44 H18          5.1630     6.2030    -4.7890 hc         1 RRG       0.071200
     45 H19          6.6860     5.5350    -5.3920 hc         1 RRG       0.071200
     46 H20          3.0490     5.6530    -5.8500 ha         1 RRG       0.136500
     47 H21          1.9200     4.9520    -7.9260 ha         1 RRG       0.115000
     48 H22          3.1950     3.7930    -9.6910 ha         1 RRG       0.111000
     49 H23          5.5990     3.3410    -9.3830 ha         1 RRG       0.115000
     50 H24          6.7280     4.0460    -7.3060 ha         1 RRG       0.136500
@<TRIPOS>BOND
     1    25    24 ar
     2    25    26 ar
     3    24    23 ar
     4    26    27 ar
     5    23    22 ar
     6    27    22 ar
     7    22    21 1
     8    21    17 1
     9    19    18 1
    10    18    20 1
    11    18    17 1
    12    17    16 1
    13    14    13 ar
    14    14    15 ar
    15    16    15 1
    16    13    10 ar
    17    15    12 ar
    18    10    11 ar
    19    10     9 1
    20    12    11 ar
    21     3     2 1
    22     8     9 ar
    23     8     7 ar
    24     9     4 ar
    25     7     6 ar
    26     4     2 1
    27     4     5 ar
    28     2     1 1
    29     6     5 ar
    30     1    28 1
    31     1    29 1
    32     1    30 1
    33     2    31 1
    34     3    32 1
    35     3    33 1
    36     3    34 1
    37     5    35 1
    38     6    36 1
    39     7    37 1
    40     8    38 1
    41    11    39 1
    42    12    40 1
    43    13    41 1
    44    14    42 1
    45    17    43 1
    46    21    44 1
    47    21    45 1
    48    23    46 1
    49    24    47 1
    50    25    48 1
    51    26    49 1
    52    27    50 1
@<TRIPOS>SUBSTRUCTURE
     1 RRG         1 TEMP              0 ****  ****    0 ROOT
