@<TRIPOS>MOLECULE
molecule
   50    52     1     0     0
SMALL
bcc


@<TRIPOS>ATOM
      1 CAA          0.0000     0.0000     0.0000 c3         1 RRH      -0.082600
      2 CAZ          1.5300     0.0000     0.0000 c3         1 RRH      -0.045400
      3 CAB          2.0400     0.0000     1.4420 c3         1 RRH      -0.082600
      4 CAY          2.0320    -1.2310    -0.7110 ca         1 RRH      -0.066300
      5 CAM          1.7000    -2.4840    -0.2410 ca         1 RRH      -0.127000
      6 CAI          2.1610    -3.6150    -0.8920 ca         1 RRH      -0.146000
      7 CAH          2.9560    -3.4950    -2.0160 ca         1 RRH      -0.140000
      8 CAL          3.2950    -2.2460    -2.4950 ca         1 RRH      -0.126000
      9 CAX          2.8290    -1.1030    -1.8470 cp         1 RRH      -0.002000
     10 CAW          3.1890     0.2420    -2.3570 cp         1 RRH      -0.124000
     11 CAQ          4.5200     0.5510    -2.6340 ca         1 RRH      -0.083500
     12 CAO          4.8520     1.8030    -3.1090 ca         1 RRH      -0.196000
     13 CAP          2.1960     1.1980    -2.5680 ca         1 RRH      -0.083500
     14 CAN          2.5350     2.4480    -3.0430 ca         1 RRH      -0.196000
     15 CAV          3.8620     2.7540    -3.3120 ca         1 RRH       0.201100
     16 OAS          4.1920     3.9870    -3.7790 os         1 RRH      -0.312900
     17 CBA          3.1140     4.8770    -4.0770 c3         1 RRH       0.031100
     18 CAT          2.6850     5.5850    -2.8170 c          1 RRH       0.867600
     19 OAD          1.6170     6.3980    -2.8360 o          1 RRH      -0.825300
     20 OAC          3.3010     5.4190    -1.7910 o          1 RRH      -0.825300
     21 CAR          3.5760     5.9080    -5.1090 c3         1 RRH      -0.020100
     22 CAU          3.8880     5.2130    -6.4090 ca         1 RRH      -0.065300
     23 CAJ          2.9000     5.0460    -7.3590 ca         1 RRH      -0.121500
     24 CAF          3.1870     4.4080    -8.5510 ca         1 RRH      -0.138000
     25 CAE          4.4630     3.9370    -8.7920 ca         1 RRH      -0.150000
     26 CAG          5.4530     4.1050    -7.8420 ca         1 RRH      -0.138000
     27 CAK          5.1670     4.7470    -6.6520 ca         1 RRH      -0.121500
     28 H1          -0.3610    -0.3470    -0.9610 hc         1 RRH       0.032200
     29 H2          -0.3610     1.0050     0.1800 hc         1 RRH       0.032200
     30 H3          -0.3610    -0.6580     0.7810 hc         1 RRH       0.032200
     31 H4           1.8910     0.8850    -0.5110 hc         1 RRH       0.095700
     32 H5           1.5420    -0.7830     2.0010 hc         1 RRH       0.032200
     33 H6           3.1090    -0.1760     1.4480 hc         1 RRH       0.032200
     34 H7           1.8290     0.9590     1.9000 hc         1 RRH       0.032200
     35 H8           1.0770    -2.5840     0.6400 ha         1 RRH       0.124000
     36 H9           1.8970    -4.5970    -0.5190 ha         1 RRH       0.115000
     37 H10          3.3160    -4.3830    -2.5210 ha         1 RRH       0.116000
     38 H11          3.9170    -2.1530    -3.3780 ha         1 RRH       0.131000
     39 H12          5.2930    -0.1910    -2.4760 ha         1 RRH       0.123500
     40 H13          5.8860     2.0440    -3.3220 ha         1 RRH       0.148500
     41 H14          1.1600     0.9590    -2.3580 ha         1 RRH       0.123500
     42 H15          1.7640     3.1920    -3.2040 ha         1 RRH       0.148500
     43 H16          2.2800     4.3140    -4.4770 h1         1 RRH       0.043700
     44 H18          2.7900     6.6360    -5.2690 hc         1 RRH       0.070700
     45 H19          4.4640     6.4100    -4.7450 hc         1 RRH       0.070700
     46 H20          1.8990     5.4150    -7.1700 ha         1 RRH       0.136500
     47 H21          2.4110     4.2770    -9.2960 ha         1 RRH       0.115000
     48 H22          4.6870     3.4350    -9.7260 ha         1 RRH       0.111000
     49 H23          6.4540     3.7370    -8.0320 ha         1 RRH       0.115000
     50 H24          5.9430     4.8780    -5.9070 ha         1 RRH       0.136500
@<TRIPOS>BOND
     1    20    18 1
     2    16    17 1
     3    16    15 1
     4    18    19 1
     5    18    17 1
     6    17    21 1
     7    15    12 ar
     8    15    14 ar
     9    12    11 ar
    10    14    13 ar
    11    11    10 ar
    12     3     2 1
    13    13    10 ar
    14    10     9 1
    15    21    22 1
    16     9     8 ar
    17     9     4 ar
    18     8     7 ar
    19    22    23 ar
    20    22    27 ar
    21    23    24 ar
    22     2     4 1
    23     2     1 1
    24     4     5 ar
    25    27    26 ar
    26     7     6 ar
    27    24    25 ar
    28    26    25 ar
    29     5     6 ar
    30     1    28 1
    31     1    29 1
    32     1    30 1
    33     2    31 1
    34     3    32 1
    35     3    33 1
    36     3    34 1
    37     5    35 1
    38     6    36 1
    39     7    37 1
    40     8    38 1
    41    11    39 1
    42    12    40 1
    43    13    41 1
    44    14    42 1
    45    17    43 1
    46    21    44 1
    47    21    45 1
    48    23    46 1
    49    24    47 1
    50    25    48 1
    51    26    49 1
    52    27    50 1
@<TRIPOS>SUBSTRUCTURE
     1 RRH         1 TEMP              0 ****  ****    0 ROOT
