@<TRIPOS>MOLECULE
RRH
   50    52     1     0     0
SMALL
bcc


@<TRIPOS>ATOM
      1 CAA         0.0290   -0.1310    0.4180 c3        1 RRH     -0.083600
      2 CAZ         1.5440   -0.1890    0.3740 c3        1 RRH     -0.035400
      3 CAB         2.1120   -0.3190    1.7750 c3        1 RRH     -0.083600
      4 CAY         2.0110   -1.3100   -0.5040 ca        1 RRH     -0.061300
      5 CAM         1.7380   -2.6310   -0.1240 ca        1 RRH     -0.133000
      6 CAI         2.1760   -3.7070   -0.8900 ca        1 RRH     -0.146000
      7 CAH         2.9040   -3.4740   -2.0560 ca        1 RRH     -0.142000
      8 CAL         3.1770   -2.1680   -2.4500 ca        1 RRH     -0.128000
      9 CAX         2.7300   -1.0730   -1.6900 cp        1 RRH      0.003000
     10 CAW         3.0420    0.2710   -2.1790 cp        1 RRH     -0.123000
     11 CAQ         4.3780    0.6480   -2.3810 ca        1 RRH     -0.093000
     12 CAO         4.6950    1.9060   -2.8730 ca        1 RRH     -0.193500
     13 CAP         2.0240    1.1860   -2.4850 ca        1 RRH     -0.093000
     14 CAN         2.3200    2.4500   -2.9800 ca        1 RRH     -0.193500
     15 CAV         3.6620    2.8160   -3.1820 ca        1 RRH      0.168100
     16 OAS         4.0810    4.0350   -3.6430 os        1 RRH     -0.325900
     17 CBA         3.1080    4.8480   -4.3390 c3        1 RRH      0.015100
     18 CAT         2.2380    5.6820   -3.3470 c         1 RRH      0.904600
     19 OAD         2.7280    6.7250   -2.8450 o         1 RRH     -0.820300
     20 OAC         1.0610    5.2640   -3.1560 o         1 RRH     -0.820300
     21 CAR         3.9370    5.7740   -5.2270 c3        1 RRH     -0.044100
     22 CAU         4.1510    5.2410   -6.5980 ca        1 RRH     -0.050300
     23 CAJ         3.0620    5.0560   -7.4620 ca        1 RRH     -0.131500
     24 CAF         3.2600    4.5780   -8.7550 ca        1 RRH     -0.137500
     25 CAE         4.5470    4.2800   -9.2050 ca        1 RRH     -0.154000
     26 CAG         5.6350    4.4590   -8.3520 ca        1 RRH     -0.137500
     27 CAK         5.4390    4.9360   -7.0560 ca        1 RRH     -0.131500
     28 H1         -0.3930   -1.0770    0.8350 hc        1 RRH      0.031533
     29 H2         -0.3820    0.0210   -0.6090 hc        1 RRH      0.031533
     30 H3         -0.3000    0.7210    1.0620 hc        1 RRH      0.031533
     31 H4          1.9160    0.7900   -0.0540 hc        1 RRH      0.086700
     32 H5          1.8110    0.5650    2.3880 hc        1 RRH      0.031533
     33 H6          1.7340   -1.2420    2.2760 hc        1 RRH      0.031533
     34 H7          3.2260   -0.3640    1.7380 hc        1 RRH      0.031533
     35 H8          1.1670   -2.8180    0.7980 ha        1 RRH      0.123000
     36 H9          1.9500   -4.7350   -0.5760 ha        1 RRH      0.117000
     37 H10         3.2580   -4.3180   -2.6650 ha        1 RRH      0.119000
     38 H11         3.7480   -1.9770   -3.3710 ha        1 RRH      0.134000
     39 H12         5.1830   -0.0630   -2.1420 ha        1 RRH      0.121000
     40 H13         5.7400    2.2090   -3.0220 ha        1 RRH      0.171500
     41 H14         0.9730    0.9010   -2.3240 ha        1 RRH      0.121000
     42 H15         1.5130    3.1850   -3.1770 ha        1 RRH      0.171500
     43 H16         2.4420    4.1860   -4.9550 h1        1 RRH      0.042700
     44 H18         3.3950    6.7570   -5.2870 hc        1 RRH      0.075700
     45 H19         4.9190    5.9690   -4.7180 hc        1 RRH      0.075700
     46 H20         2.0470    5.2870   -7.1040 ha        1 RRH      0.137500
     47 H21         2.3990    4.4340   -9.4230 ha        1 RRH      0.116000
     48 H22         4.7010    3.9030  -10.2250 ha        1 RRH      0.113000
     49 H23         6.6500    4.2210   -8.6990 ha        1 RRH      0.116000
     50 H24         6.2990    5.0690   -6.3840 ha        1 RRH      0.137500
@<TRIPOS>BOND
     1    1    2 1   
     2    1   28 1   
     3    1   29 1   
     4    1   30 1   
     5    2    3 1   
     6    2    4 1   
     7    2   31 1   
     8    3   32 1   
     9    3   33 1   
    10    3   34 1   
    11    4    5 ar  
    12    4    9 ar  
    13    5    6 ar  
    14    5   35 1   
    15    6    7 ar  
    16    6   36 1   
    17    7    8 ar  
    18    7   37 1   
    19    8    9 ar  
    20    8   38 1   
    21    9   10 1   
    22   10   11 ar  
    23   10   13 ar  
    24   11   12 ar  
    25   11   39 1   
    26   12   15 ar  
    27   12   40 1   
    28   13   14 ar  
    29   13   41 1   
    30   14   15 ar  
    31   14   42 1   
    32   15   16 1   
    33   16   17 1   
    34   17   18 1   
    35   17   21 1   
    36   17   43 1   
    37   18   19 1   
    38   18   20 1   
    39   21   22 1   
    40   21   44 1   
    41   21   45 1   
    42   22   23 ar  
    43   22   27 ar  
    44   23   24 ar  
    45   23   46 1   
    46   24   25 ar  
    47   24   47 1   
    48   25   26 ar  
    49   25   48 1   
    50   26   27 ar  
    51   26   49 1   
    52   27   50 1   
@<TRIPOS>SUBSTRUCTURE
     1 RRH         1 TEMP              0 ****  ****    0 ROOT
