@<TRIPOS>MOLECULE
molecule
   34    35     1     0     0
SMALL
bcc


@<TRIPOS>ATOM
      1 C1           1.4690     0.0000     0.0000 c3         1 RRK       0.166300
      2 C2           1.9710     0.0000     1.4210 ca         1 RRK      -0.236300
      3 C3           1.3340     0.7660     2.3790 ca         1 RRK      -0.129750
      4 C4           1.7950     0.7670     3.6810 ca         1 RRK      -0.079250
      5 C5           2.8930     0.0020     4.0270 ca         1 RRK      -0.054000
      6 C6           3.5310    -0.7640     3.0690 ca         1 RRK      -0.079250
      7 C7           3.0670    -0.7690     1.7670 ca         1 RRK      -0.129750
      8 C8           1.9780     1.2490    -0.7230 c3         1 RRK       0.166300
      9 C9           1.4760     1.2480    -2.1420 ca         1 RRK      -0.236300
     10 C10          0.1860     1.6630    -2.4200 ca         1 RRK      -0.129750
     11 C11         -0.2740     1.6620    -3.7230 ca         1 RRK      -0.079250
     12 C12          0.5530     1.2470    -4.7500 ca         1 RRK      -0.054000
     13 C13          1.8430     0.8330    -4.4720 ca         1 RRK      -0.079250
     14 C14          2.3060     0.8390    -3.1690 ca         1 RRK      -0.129750
     15 N1           1.4890     2.4490    -0.0300 nz         1 RRK      -0.814100
     16 N2           0.0000     0.0000     0.0000 nz         1 RRK      -0.814100
     17 H1           1.8300    -0.8850    -0.5100 hx         1 RRK       0.162700
     18 H2           0.4730     1.3650     2.1090 ha         1 RRK       0.123500
     19 H3           1.2950     1.3670     4.4320 ha         1 RRK       0.181250
     20 H4           3.2560     0.0040     5.0480 ha         1 RRK       0.187000
     21 H5           4.3910    -1.3650     3.3390 ha         1 RRK       0.181250
     22 H6           3.5660    -1.3680     1.0160 ha         1 RRK       0.123500
     23 H7           3.0620     1.2490    -0.7230 hx         1 RRK       0.162700
     24 H8          -0.4630     1.9880    -1.6160 ha         1 RRK       0.123500
     25 H9          -1.2850     1.9870    -3.9400 ha         1 RRK       0.181250
     26 H10          0.1910     1.2450    -5.7710 ha         1 RRK       0.187000
     27 H11          2.4930     0.5110    -5.2760 ha         1 RRK       0.181250
     28 H12          3.3160     0.5140    -2.9530 ha         1 RRK       0.123500
     29 H13          0.5240     2.3270     0.2060 hn         1 RRK       0.465633
     30 H14          2.0210     2.5920     0.8050 hn         1 RRK       0.465633
     31 H16         -0.3340     0.9170     0.2230 hn         1 RRK       0.465633
     32 H17         -0.3340    -0.2650    -0.9050 hn         1 RRK       0.465633
     33 H131         1.6130     3.2480    -0.6200 hn         1 RRK       0.465633
     34 H23         -0.3340    -0.6440     0.6890 hn         1 RRK       0.465633
@<TRIPOS>BOND
     1     4     3 ar
     2     4     5 ar
     3     3     2 ar
     4    16     1 1
     5     5     6 ar
     6     2     1 1
     7     2     7 ar
     8    15     8 1
     9     1     8 1
    10     6     7 ar
    11     8     9 1
    12     9    14 ar
    13     9    10 ar
    14    14    13 ar
    15    10    11 ar
    16    13    12 ar
    17    11    12 ar
    18     1    17 1
    19     3    18 1
    20     4    19 1
    21     5    20 1
    22     6    21 1
    23     7    22 1
    24     8    23 1
    25    10    24 1
    26    11    25 1
    27    12    26 1
    28    13    27 1
    29    14    28 1
    30    15    29 1
    31    15    30 1
    32    16    31 1
    33    16    32 1
    34    33    15 1
    35    34    16 1
@<TRIPOS>SUBSTRUCTURE
     1 RRK         1 TEMP              0 ****  ****    0 ROOT
