@<TRIPOS>MOLECULE
RRO
   14    14     1     0     0
SMALL
bcc


@<TRIPOS>ATOM
      1 OAA          0.0000     0.0000     0.0000 o          1 RRO      -0.851300
      2 CAH          1.3460     0.0000     0.0000 c          1 RRO       0.966800
      3 OAD          1.9530     0.0000     1.0520 o          1 RRO      -0.851300
      4 CAI          2.0880     0.0010    -1.2820 cc         1 RRO      -0.116600
      5 CAJ          1.4140     0.0060    -2.4630 cd         1 RRO      -0.192500
      6 Br          -0.4750     0.0150    -2.5020 br         1 RRO      -0.000700
      7 CAL          2.1930     0.0080    -3.7110 c          1 RRO       0.621700
      8 OAC          1.6330     0.0130    -4.7900 o          1 RRO      -0.686500
      9 NAG          3.5400     0.0010    -3.6360 ns         1 RRO      -0.138500
     10 CAK          4.1570    -0.0050    -2.4420 c          1 RRO       0.563500
     11 OAB          5.3720    -0.0100    -2.4040 o          1 RRO      -0.759500
     12 NAF          3.4680     0.0000    -1.2890 ns         1 RRO       0.048900
     13 H3           4.0840     0.0020    -4.4760 hn         1 RRO       0.189500
     14 H2           3.9630    -0.0040    -0.4200 hn         1 RRO       0.206500
@<TRIPOS>BOND
     1     1     2 1   
     2     2     3 1   
     3     2     4 1   
     4     4     5 2   
     5     4    12 1   
     6     5     6 1   
     7     5     7 1   
     8     7     8 2   
     9     7     9 1   
    10     9    10 1   
    11     9    13 1   
    12    10    11 2   
    13    10    12 1   
    14    12    14 1   
@<TRIPOS>SUBSTRUCTURE
     1 RRO         1 TEMP              0 ****  ****    0 ROOT
