@<TRIPOS>MOLECULE
molecule
   86    90     1     0     0
SMALL
bcc


@<TRIPOS>ATOM
      1 CBT          0.0000     0.0000     0.0000 c3         1 RRQ       0.223100
      2 NBP          1.4650     0.0000     0.0000 nu         1 RRQ      -0.820600
      3 CBL          2.1590     0.0000     1.2020 ca         1 RRQ       0.229600
      4 CBK          1.4760     0.1380     2.4040 ca         1 RRQ      -0.238000
      5 CBM          3.5560    -0.1440     1.2100 ca         1 RRQ      -0.174600
      6 CBQ          4.2940    -0.2970    -0.0560 c          1 RRQ       0.900200
      7 OBS          3.7100    -0.1810    -1.1160 o          1 RRQ      -0.837300
      8 OBR          5.6140    -0.5640    -0.0390 o          1 RRQ      -0.837300
      9 CBN          4.2430    -0.1430     2.4270 ca         1 RRQ      -0.052000
     10 CBO          3.5470     0.0000     3.6080 ca         1 RRQ      -0.225000
     11 CBJ          2.1690     0.1370     3.5970 ca         1 RRQ      -0.100300
     12 CBB          1.4210     0.2930     4.8960 c3         1 RRQ       0.269100
     13 NAA          1.1750     1.7150     5.1510 n3         1 RRQ      -0.801500
     14 CBC          0.0160     2.3770     4.5470 c3         1 RRQ       0.245800
     15 CBD         -1.2090     2.1790     5.4410 c3         1 RRQ      -0.093700
     16 CBE         -1.5970     0.6990     5.4580 c3         1 RRQ      -0.074400
     17 CBF         -2.8580     0.5150     6.3040 c3         1 RRQ       0.158800
     18 NBG         -3.9490     1.3200     5.7410 n7         1 RRQ      -0.819200
     19 CBH         -3.6180     2.7510     5.7590 c3         1 RRQ       0.158800
     20 CBI         -2.3790     3.0000     4.8960 c3         1 RRQ      -0.074400
     21 SAB          2.2060     2.5720     6.1210 sy         1 RRQ       1.422200
     22 OAC          1.4210     3.5700     6.7600 o          1 RRQ      -0.648300
     23 OAD          2.9750     1.6140     6.8360 o          1 RRQ      -0.648300
     24 CAE          3.3300     3.4230     5.0640 ca         1 RRQ      -0.255500
     25 CAJ          3.0160     4.6850     4.5960 ca         1 RRQ      -0.044500
     26 CAI          3.8980     5.3540     3.7660 ca         1 RRQ      -0.051000
     27 CAF          4.5280     2.8320     4.7080 ca         1 RRQ      -0.044500
     28 CAG          5.4090     3.5000     3.8800 ca         1 RRQ      -0.051000
     29 CAH          5.0940     4.7600     3.4060 ca         1 RRQ      -0.260500
     30 SAK          6.2170     5.6110     2.3490 sy         1 RRQ       1.416200
     31 OAL          6.9000     4.6130     1.6040 o          1 RRQ      -0.625800
     32 OAM          5.4790     6.6640     1.7440 o          1 RRQ      -0.625800
     33 NAN          7.3510     6.3320     3.3170 n3         1 RRQ      -0.806500
     34 CAQ          8.4830     5.5510     3.8240 c3         1 RRQ       0.237500
     35 CAR          8.3950     5.4310     5.3560 c3         1 RRQ      -0.101900
     36 CAS          9.6700     6.0890     5.9240 c3         1 RRQ      -0.090900
     37 CAT         10.1190     7.0680     4.8110 c3         1 RRQ      -0.090900
     38 CAU          9.8070     6.2790     3.5140 c3         1 RRQ      -0.101900
     39 CAO          7.2230     7.7480     3.6660 c3         1 RRQ       0.271100
     40 CAP          6.4740     7.8800     4.9670 ca         1 RRQ      -0.113300
     41 CAV          5.0920     7.8530     4.9750 ca         1 RRQ      -0.116500
     42 CAW          4.4050     7.9740     6.1690 ca         1 RRQ      -0.123500
     43 CAX          5.1010     8.1200     7.3550 ca         1 RRQ       0.033400
     44 Cl           4.2400     8.2710     8.8550 cl         1 RRQ      -0.113400
     45 CAY          6.4840     8.1470     7.3470 ca         1 RRQ      -0.123500
     46 CAZ          7.1710     8.0210     6.1530 ca         1 RRQ      -0.116500
     47 H1          -0.3610     0.9490     0.3780 h1         1 RRQ       0.015367
     48 H2          -0.3610    -0.1470    -1.0110 h1         1 RRQ       0.015367
     49 H3          -0.3610    -0.8020     0.6330 h1         1 RRQ       0.015367
     50 H4           1.9650     0.0300    -0.8660 hn         1 RRQ       0.501800
     51 H5           0.3980     0.2460     2.4040 ha         1 RRQ       0.109000
     52 H7           5.3210    -0.2520     2.4430 ha         1 RRQ       0.153000
     53 H8           4.0800     0.0010     4.5510 ha         1 RRQ       0.108000
     54 H9           0.4760    -0.2320     4.8330 h1         1 RRQ       0.064700
     55 H10          2.0120    -0.1220     5.7040 h1         1 RRQ       0.064700
     56 H11          0.2190     3.4360     4.4420 h1         1 RRQ       0.057200
     57 H12         -0.1770     1.9490     3.5700 h1         1 RRQ       0.057200
     58 H13         -0.9820     2.5020     6.4500 hc         1 RRQ       0.064700
     59 H14         -0.7880     0.1190     5.8860 hc         1 RRQ       0.052450
     60 H15         -1.7910     0.3660     4.4450 hc         1 RRQ       0.052450
     61 H16         -2.6600     0.8380     7.3190 h1         1 RRQ       0.027950
     62 H17         -3.1440    -0.5300     6.3010 h1         1 RRQ       0.027950
     63 H18         -4.7850     1.1640     6.2680 hn         1 RRQ       0.344800
     64 H20         -4.4530     3.3180     5.3640 h1         1 RRQ       0.027950
     65 H21         -3.4160     3.0600     6.7780 h1         1 RRQ       0.027950
     66 H22         -2.1260     4.0530     4.9260 hc         1 RRQ       0.052450
     67 H23         -2.5850     2.7010     3.8750 hc         1 RRQ       0.052450
     68 H24          2.0800     5.1510     4.8780 ha         1 RRQ       0.154500
     69 H25          3.6510     6.3420     3.3970 ha         1 RRQ       0.150500
     70 H26          4.7760     1.8450     5.0790 ha         1 RRQ       0.154500
     71 H27          6.3470     3.0350     3.5990 ha         1 RRQ       0.150500
     72 H28          8.4900     4.5640     3.3770 h1         1 RRQ       0.090700
     73 H29          8.3590     4.3870     5.6430 hc         1 RRQ       0.059200
     74 H30          7.5170     5.9520     5.7180 hc         1 RRQ       0.059200
     75 H31          9.4410     6.6310     6.8340 hc         1 RRQ       0.043950
     76 H32         10.4340     5.3420     6.1010 hc         1 RRQ       0.043950
     77 H33         11.1800     7.2730     4.8880 hc         1 RRQ       0.043950
     78 H34          9.5410     7.9830     4.8500 hc         1 RRQ       0.043950
     79 H35          9.6790     6.9580     2.6800 hc         1 RRQ       0.059200
     80 H36         10.5930     5.5610     3.3100 hc         1 RRQ       0.059200
     81 H37          6.6810     8.2650     2.8840 h1         1 RRQ       0.073200
     82 H38          8.2090     8.1840     3.7710 h1         1 RRQ       0.073200
     83 H39          4.5470     7.7390     4.0460 ha         1 RRQ       0.149500
     84 H40          3.3220     7.9530     6.1750 ha         1 RRQ       0.144000
     85 H41          7.0290     8.2590     8.2760 ha         1 RRQ       0.144000
     86 H42          8.2540     8.0420     6.1470 ha         1 RRQ       0.149500
@<TRIPOS>BOND
     1     7     6 1
     2     6     8 1
     3     6     5 1
     4     9     5 ar
     5     9    10 ar
     6     5     3 ar
     7    10    11 ar
     8    22    21 2
     9     3     2 1
    10     3     4 ar
    11    11     4 ar
    12    11    12 1
    13     2     1 1
    14    37    36 1
    15    37    38 1
    16    21    23 2
    17    21    13 1
    18    21    24 1
    19    12    13 1
    20    36    35 1
    21    38    34 1
    22    13    14 1
    23    25    24 ar
    24    25    26 ar
    25    16    17 1
    26    16    15 1
    27    24    27 ar
    28    17    18 1
    29    35    34 1
    30    26    29 ar
    31    34    33 1
    32    15    14 1
    33    15    20 1
    34    27    28 ar
    35    39    33 1
    36    39    40 1
    37    18    19 1
    38    29    28 ar
    39    29    30 1
    40    33    30 1
    41    41    40 ar
    42    41    42 ar
    43    40    46 ar
    44    19    20 1
    45    30    32 2
    46    30    31 2
    47    42    43 ar
    48    46    45 ar
    49    43    45 ar
    50    43    44 1
    51     1    47 1
    52     1    48 1
    53     1    49 1
    54     2    50 1
    55     4    51 1
    56     9    52 1
    57    10    53 1
    58    12    54 1
    59    12    55 1
    60    14    56 1
    61    14    57 1
    62    15    58 1
    63    16    59 1
    64    16    60 1
    65    17    61 1
    66    17    62 1
    67    18    63 1
    68    19    64 1
    69    19    65 1
    70    20    66 1
    71    20    67 1
    72    25    68 1
    73    26    69 1
    74    27    70 1
    75    28    71 1
    76    34    72 1
    77    35    73 1
    78    35    74 1
    79    36    75 1
    80    36    76 1
    81    37    77 1
    82    37    78 1
    83    38    79 1
    84    38    80 1
    85    39    81 1
    86    39    82 1
    87    41    83 1
    88    42    84 1
    89    45    85 1
    90    46    86 1
@<TRIPOS>SUBSTRUCTURE
     1 RRQ         1 TEMP              0 ****  ****    0 ROOT
