@<TRIPOS>MOLECULE
RRS
   72    74     1     0     0
SMALL
bcc


@<TRIPOS>ATOM
      1 C1         -2.0000   -2.6900   -0.2870 c         1 RRS      0.577100
      2 O2         -1.4620   -2.2040    0.6890 o         1 RRS     -0.367100
      3 N1         -2.8280   -3.9610    0.0330 n4        1 RRS     -0.459300
      4 O1         -3.6710   -4.1830   -0.9980 oh        1 RRS     -0.373300
      5 C2         -1.9920   -2.2450   -1.7170 c3        1 RRS     -0.146400
      6 C3         -1.0670   -1.0370   -1.9070 c3        1 RRS     -0.124700
      7 C4         -1.4790   -0.3130   -3.1770 c         1 RRS      0.549100
      8 O3         -2.3990   -0.5910   -3.9260 o         1 RRS     -0.388100
      9 N2         -0.6250    0.8900   -3.5410 n4        1 RRS     -0.689800
     10 C5         -1.0190    1.5880   -4.8220 c3        1 RRS      0.058500
     11 C6          0.2520    2.0430   -5.5670 c         1 RRS      0.539100
     12 O4          1.3570    1.5650   -5.3290 o         1 RRS     -0.422100
     13 N3          0.1350    3.0710   -6.6270 n4        1 RRS     -0.643800
     14 C7          0.9020    2.7600   -7.8860 c3        1 RRS      0.111800
     15 C8          1.2790    4.0110   -8.6690 c3        1 RRS     -0.117400
     16 C9          0.1270    4.9570   -8.9470 c3        1 RRS     -0.103400
     17 C10         0.1840    6.2050   -8.0840 c3        1 RRS     -0.093400
     18 C11        -1.1740    6.8590   -7.9110 c3        1 RRS     -0.110400
     19 C12        -1.4710    7.2890   -6.4730 c3        1 RRS      0.011300
     20 N4         -1.4050    6.2120   -5.5080 na        1 RRS     -0.012400
     21 C13         0.3990   -1.4610   -1.9750 c3        1 RRS     -0.117400
     22 C14         1.3550   -0.4240   -1.3850 c3        1 RRS     -0.071700
     23 C15         1.7460   -0.8050    0.0310 c3        1 RRS     -0.108100
     24 C16         2.5890   -0.2870   -2.2520 c3        1 RRS     -0.108100
     25 C17        -2.0580    2.7100   -4.5610 c3        1 RRS     -0.000200
     26 C18        -1.5320    4.0590   -4.7270 cc        1 RRS     -0.344400
     27 C19        -2.0540    5.0030   -5.6410 cd        1 RRS     -0.060100
     28 C20        -0.5300    4.7490   -3.9430 ca        1 RRS     -0.112800
     29 C21        -0.4540    6.0920   -4.4730 ca        1 RRS     -0.066200
     30 C22         0.2760    4.4040   -2.8540 ca        1 RRS     -0.150000
     31 C23         0.4220    7.0430   -3.9210 ca        1 RRS     -0.088000
     32 C24         1.1350    5.3500   -2.3190 ca        1 RRS     -0.087000
     33 C25         1.2100    6.6530   -2.8510 ca        1 RRS     -0.091000
     34 HN1        -3.3450   -3.8080    0.9250 hn        1 RRS      0.490300
     35 HO1        -4.2630   -4.9470   -0.7800 ho        1 RRS      0.505000
     36 H21        -3.0540   -1.9950   -2.0140 hc        1 RRS      0.143700
     37 H22A       -1.6650   -3.0980   -2.3790 hc        1 RRS      0.143700
     38 H3         -1.2110   -0.3270   -1.0350 hc        1 RRS      0.133700
     39 HN2        -0.6830    1.5740   -2.7670 hn        1 RRS      0.489800
     40 H5         -1.5050    0.8040   -5.4920 hx        1 RRS      0.156700
     41 HN3        -0.8590    3.2330   -6.8560 hn        1 RRS      0.489800
     42 H71         0.2480    2.0860   -8.5120 hx        1 RRS      0.117200
     43 H72         1.8430    2.2040   -7.5990 hx        1 RRS      0.117200
     44 H81         2.1140    4.5540   -8.1490 hc        1 RRS      0.107200
     45 H82         1.7030    3.6340   -9.6450 hc        1 RRS      0.107200
     46 H91         0.1690    5.2730  -10.0280 hc        1 RRS      0.065700
     47 H92        -0.8540    4.4270   -8.8240 hc        1 RRS      0.065700
     48 H101        0.6360    5.9570   -7.0860 hc        1 RRS      0.053200
     49 H102        0.8900    6.9400   -8.5610 hc        1 RRS      0.053200
     50 H111       -1.2280    7.7890   -8.5420 hc        1 RRS      0.079700
     51 H112       -1.9920    6.1810   -8.2730 hc        1 RRS      0.079700
     52 H121       -0.7390    8.0860   -6.1550 h1        1 RRS      0.102200
     53 H122       -2.5110    7.7300   -6.4310 h1        1 RRS      0.102200
     54 H131        0.6810   -1.7060   -3.0340 hc        1 RRS      0.083200
     55 H132        0.5180   -2.4190   -1.3970 hc        1 RRS      0.083200
     56 H14         0.8420    0.5790   -1.3290 hc        1 RRS      0.007700
     57 H151        2.3540    0.0110    0.4940 hc        1 RRS      0.061867
     58 H152        2.3610   -1.7380    0.0340 hc        1 RRS      0.061867
     59 H153        0.8350   -0.9690    0.6570 hc        1 RRS      0.061867
     60 H161        2.3290    0.0830   -3.2740 hc        1 RRS      0.061867
     61 H162        3.3070    0.4340   -1.7860 hc        1 RRS      0.061867
     62 H163        3.1120   -1.2700   -2.3550 hc        1 RRS      0.061867
     63 H171       -2.4990    2.5960   -3.5300 hc        1 RRS      0.097700
     64 H172       -2.9090    2.5370   -5.2820 hc        1 RRS      0.097700
     65 H19        -2.8790    4.8810   -6.3540 h4        1 RRS      0.195000
     66 H22         0.2020    3.4090   -2.3950 ha        1 RRS      0.082000
     67 H23         0.4690    8.0730   -4.3100 ha        1 RRS      0.174000
     68 H24         1.7650    5.0960   -1.4500 ha        1 RRS      0.162000
     69 H25         1.9020    7.3800   -2.3900 ha        1 RRS      0.181000
     70 H12        -2.1780   -4.7630    0.1590 hn        1 RRS      0.490300
     71 H221        0.3620    0.5670   -3.5960 hn        1 RRS      0.489800
     72 H32         0.4920    3.9640   -6.2230 hn        1 RRS      0.489800
@<TRIPOS>BOND
     1    1    2 2   
     2    1    3 1   
     3    1    5 1   
     4    3    4 1   
     5    3   34 1   
     6    3   70 1   
     7    4   35 1   
     8    5    6 1   
     9    5   36 1   
    10    5   37 1   
    11    6    7 1   
    12    6   21 1   
    13    6   38 1   
    14    7    8 2   
    15    7    9 1   
    16    9   10 1   
    17    9   39 1   
    18    9   71 1   
    19   10   11 1   
    20   10   25 1   
    21   10   40 1   
    22   11   12 2   
    23   11   13 1   
    24   13   14 1   
    25   13   41 1   
    26   13   72 1   
    27   14   15 1   
    28   14   42 1   
    29   14   43 1   
    30   15   16 1   
    31   15   44 1   
    32   15   45 1   
    33   16   17 1   
    34   16   46 1   
    35   16   47 1   
    36   17   18 1   
    37   17   48 1   
    38   17   49 1   
    39   18   19 1   
    40   18   50 1   
    41   18   51 1   
    42   19   20 1   
    43   19   52 1   
    44   19   53 1   
    45   20   27 1   
    46   20   29 1   
    47   21   22 1   
    48   21   54 1   
    49   21   55 1   
    50   22   23 1   
    51   22   24 1   
    52   22   56 1   
    53   23   57 1   
    54   23   58 1   
    55   23   59 1   
    56   24   60 1   
    57   24   61 1   
    58   24   62 1   
    59   25   26 1   
    60   25   63 1   
    61   25   64 1   
    62   26   27 2   
    63   26   28 1   
    64   27   65 1   
    65   28   29 ar  
    66   28   30 ar  
    67   29   31 ar  
    68   30   32 ar  
    69   30   66 1   
    70   31   33 ar  
    71   31   67 1   
    72   32   33 ar  
    73   32   68 1   
    74   33   69 1   
@<TRIPOS>SUBSTRUCTURE
     1 RRS         1 TEMP              0 ****  ****    0 ROOT
