@<TRIPOS>MOLECULE
molecule
   31    31     1     0     0
SMALL
bcc


@<TRIPOS>ATOM
      1 SG           0.0000     0.0000     0.0000 sh         1 RRT      -0.289900
      2 CB2          1.8140     0.0000     0.0000 c3         1 RRT      -0.005300
      3 CA1          2.3250     0.0000     1.4430 c3         1 RRT       0.138700
      4 CB1          3.8540    -0.0000     1.4430 c3         1 RRT      -0.046100
      5 CG           4.3560    -0.1240     2.8570 ca         1 RRT      -0.069300
      6 CD1          4.5870    -1.3740     3.4020 ca         1 RRT      -0.117500
      7 CD2          4.5920     1.0110     3.6100 ca         1 RRT      -0.117500
      8 CE1          5.0480    -1.4890     4.7000 ca         1 RRT      -0.125000
      9 CE2          5.0490     0.8970     4.9100 ca         1 RRT      -0.125000
     10 CZ           5.2780    -0.3530     5.4540 ca         1 RRT      -0.134000
     11 O1          -0.0810     0.2020     2.6420 o          1 RRT      -0.520100
     12 N            1.8360     1.1950     2.1330 ns         1 RRT      -0.612900
     13 CA2          0.1110     2.4230     3.4130 c3         1 RRT      -0.253400
     14 C2          -1.2690     2.1620     3.9550 c          1 RRT       0.889600
     15 O2          -1.9200     3.1230     4.6310 o          1 RRT      -0.828800
     16 O3          -1.7930     1.0860     3.7820 o          1 RRT      -0.828800
     17 HSG         -0.4430    -0.2420    -1.2280 hs         1 RRT       0.132800
     18 HB21         2.1750     0.8840    -0.5110 h1         1 RRT       0.039200
     19 HB22         2.1750    -0.8840    -0.5110 h1         1 RRT       0.039200
     20 HA1          1.9640    -0.8850     1.9530 h1         1 RRT       0.094700
     21 HB11         4.2150    -0.8370     0.8570 hc         1 RRT       0.044200
     22 HB12         4.2160     0.9250     1.0110 hc         1 RRT       0.044200
     23 HD1          4.4060    -2.2640     2.8110 ha         1 RRT       0.126500
     24 HD2          4.4120     1.9900     3.1830 ha         1 RRT       0.126500
     25 HE1          5.2280    -2.4680     5.1270 ha         1 RRT       0.124000
     26 HE2          5.2310     1.7860     5.5000 ha         1 RRT       0.124000
     27 HZ           5.6380    -0.4420     6.4720 ha         1 RRT       0.121000
     28 H            2.3920     2.0270     2.1460 hn         1 RRT       0.294500
     29 HA21         0.0750     3.2530     2.7180 hc         1 RRT       0.045200
     30 HA22         0.7800     2.6660     4.2310 hc         1 RRT       0.045200
     31 C1           0.6140     1.1930     2.7020 c          1 RRT       0.645100
@<TRIPOS>BOND
     1     1     2 1
     2     1    17 1
     3     2     3 1
     4     2    18 1
     5     2    19 1
     6     3     4 1
     7     3    12 1
     8     3    20 1
     9     4     5 1
    10     4    21 1
    11     4    22 1
    12     5     6 ar
    13     5     7 ar
    14     6     8 ar
    15     6    23 1
    16     7     9 ar
    17     7    24 1
    18     8    10 ar
    19     8    25 1
    20     9    10 ar
    21     9    26 1
    22    10    27 1
    23    31    11 2
    24    31    12 1
    25    31    13 1
    26    12    28 1
    27    13    14 1
    28    13    29 1
    29    13    30 1
    30    14    15 1
    31    14    16 1
@<TRIPOS>SUBSTRUCTURE
     1 RRT         1 TEMP              0 ****  ****    0 ROOT
