@<TRIPOS>MOLECULE
molecule
   46    46     1     0     0
SMALL
bcc


@<TRIPOS>ATOM
      1 C1           0.0000     0.0000     0.0000 c3         1 RRV      -0.080600
      2 C2           1.5290     0.0000     0.0000 c3         1 RRV      -0.058000
      3 C3           2.0390    -1.2480    -0.7210 c3         1 RRV      -0.080600
      4 C4           2.0390     1.2500    -0.7200 c3         1 RRV       0.148400
      5 O5           1.5640     1.2490    -2.0680 oh         1 RRV      -0.617800
      6 C6           2.0390     0.0000     1.4430 c3         1 RRV       0.085100
      7 C7           1.6560     1.2950     2.1110 c          1 RRV       0.629100
      8 O8           2.5130     2.0990     2.4130 o          1 RRV      -0.588100
      9 N9           0.3600     1.5610     2.3730 ns         1 RRV      -0.592900
     10 C10         -0.0220     2.8590     2.9330 c3         1 RRV       0.110000
     11 C11         -1.5390     2.9010     3.1330 c3         1 RRV      -0.116400
     12 C12         -1.9390     4.2580     3.7180 c3         1 RRV       0.155100
     13 O13         -1.6530     5.2890     2.7710 oh         1 RRV      -0.602800
     14 C15         -3.4350     4.2550     4.0340 c3         1 RRV      -0.044100
     15 C16         -3.8050     5.5430     4.7230 ca         1 RRV      -0.088300
     16 C17         -4.2000     6.6380     3.9770 ca         1 RRV      -0.120500
     17 C18         -4.5390     7.8190     4.6080 ca         1 RRV      -0.129000
     18 C19         -4.4840     7.9060     5.9870 ca         1 RRV      -0.129000
     19 C20         -4.0900     6.8120     6.7340 ca         1 RRV      -0.129000
     20 C21         -3.7560     5.6290     6.1020 ca         1 RRV      -0.120500
     21 O22          3.4610    -0.1340     1.4450 oh         1 RRV      -0.571800
     22 H1          -0.3610    -0.4660    -0.9090 hc         1 RRV       0.041700
     23 H1A         -0.3610    -0.5540     0.8580 hc         1 RRV       0.041700
     24 H1B         -0.3610     1.0200     0.0500 hc         1 RRV       0.041700
     25 H3           3.1090    -1.1670    -0.8710 hc         1 RRV       0.041700
     26 H3A          1.8240    -2.1250    -0.1220 hc         1 RRV       0.041700
     27 H3B          1.5460    -1.3380    -1.6820 hc         1 RRV       0.041700
     28 H4           3.1230     1.2510    -0.7200 h1         1 RRV       0.039700
     29 H4A          1.6770     2.1340    -0.2100 h1         1 RRV       0.039700
     30 HO5          2.0350     1.8950    -2.5680 ho         1 RRV       0.405000
     31 H6           1.5970    -0.8290     1.9820 h1         1 RRV       0.044700
     32 HN9         -0.3300     0.8460     2.2530 hn         1 RRV       0.316500
     33 H10          0.4720     3.0010     3.8870 h1         1 RRV       0.055700
     34 H10A         0.2740     3.6480     2.2520 h1         1 RRV       0.055700
     35 H11         -1.8350     2.1120     3.8140 hc         1 RRV       0.054700
     36 H11A        -2.0330     2.7590     2.1790 hc         1 RRV       0.054700
     37 H12         -1.3790     4.4370     4.6280 h1         1 RRV       0.038700
     38 HO13        -0.9910     5.8620     3.1220 ho         1 RRV       0.407000
     39 H15         -3.9980     4.1630     3.1130 hc         1 RRV       0.058700
     40 H15A        -3.6660     3.4190     4.6830 hc         1 RRV       0.058700
     41 H17         -4.2430     6.5700     2.8960 ha         1 RRV       0.133000
     42 H18         -4.8480     8.6770     4.0230 ha         1 RRV       0.129500
     43 H19         -4.7480     8.8330     6.4820 ha         1 RRV       0.129000
     44 H20         -4.0500     6.8800     7.8140 ha         1 RRV       0.129500
     45 H21         -3.4470     4.7710     6.6880 ha         1 RRV       0.133000
     46 HO22         3.7240    -0.6760     2.1700 ho         1 RRV       0.407000
@<TRIPOS>BOND
     1     1     2 1
     2     2     3 1
     3     2     4 1
     4     2     6 1
     5     4     5 1
     6     6     7 1
     7     6    21 1
     8     7     8 2
     9     7     9 1
    10     9    10 1
    11    10    11 1
    12    11    12 1
    13    12    13 1
    14    12    14 1
    15    14    15 1
    16    15    16 ar
    17    15    20 ar
    18    16    17 ar
    19    17    18 ar
    20    18    19 ar
    21    19    20 ar
    22     1    22 1
    23     1    23 1
    24     1    24 1
    25     3    25 1
    26     3    26 1
    27     3    27 1
    28     4    28 1
    29     4    29 1
    30     5    30 1
    31     6    31 1
    32     9    32 1
    33    10    33 1
    34    10    34 1
    35    11    35 1
    36    11    36 1
    37    12    37 1
    38    13    38 1
    39    14    39 1
    40    14    40 1
    41    16    41 1
    42    17    42 1
    43    18    43 1
    44    19    44 1
    45    20    45 1
    46    21    46 1
@<TRIPOS>SUBSTRUCTURE
     1 RRV         1 TEMP              0 ****  ****    0 ROOT
