@<TRIPOS>MOLECULE
molecule
   97    98     1     0     0
SMALL
bcc


@<TRIPOS>ATOM
      1 C1           0.0000     0.0000     0.0000 c3         1 RRX      -0.012800
      2 C2           1.5300     0.0000     0.0000 c3         1 RRX      -0.069400
      3 C3           2.0180     0.0000     1.4540 c3         1 RRX      -0.082400
      4 C30        -23.5000     0.2270     7.6540 c3         1 RRX      -0.007800
      5 C39        -22.8560    -1.0520     7.1180 c3         1 RRX      -0.073600
      6 C29        -24.8310     0.4580     6.9340 c3         1 RRX      -0.076400
      7 C28        -25.3450     1.8560     7.2970 c3         1 RRX       0.142100
      8 C27        -24.4150     2.8950     6.6650 c3         1 RRX      -0.045200
      9 C26        -22.9850     2.5720     6.9890 c2         1 RRX      -0.205400
     10 C38        -21.9530     3.6560     6.8100 c3         1 RRX      -0.043900
     11 C25        -22.5830     1.3910     7.4230 ce         1 RRX      -0.181200
     12 C24        -20.3990     3.3650     9.0850 cf         1 RRX      -0.083000
     13 C23        -19.5480     3.4550     8.0290 ce         1 RRX      -0.105000
     14 C22        -18.1920     3.1170     8.1880 ce         1 RRX      -0.119200
     15 C37        -17.6840     2.6550     9.5290 c3         1 RRX      -0.054900
     16 C21        -17.3370     3.2070     7.1280 cf         1 RRX      -0.105000
     17 C20        -15.9860     2.8700     7.2860 cf         1 RRX      -0.143000
     18 C19        -15.1240     2.9610     6.2160 ce         1 RRX      -0.108000
     19 C18        -13.7750     2.6250     6.3740 ce         1 RRX      -0.074200
     20 C36        -13.2660     2.1630     7.7150 c3         1 RRX      -0.062900
     21 C17        -12.9120     2.7160     5.3030 cf         1 RRX      -0.136000
     22 C16        -11.5630     2.3800     5.4620 cf         1 RRX      -0.106000
     23 C15        -10.7000     2.4710     4.3900 ce         1 RRX      -0.148000
     24 C14         -9.3520     2.1350     4.5480 ce         1 RRX      -0.409000
     25 C13         -8.4880     2.2260     3.4780 cf         1 RRX       0.001800
     26 C35         -8.9970     2.6890     2.1360 c3         1 RRX      -0.120900
     27 C12         -7.1390     1.8890     3.6360 cf         1 RRX      -0.091000
     28 C11         -6.2770     1.9800     2.5660 ce         1 RRX      -0.133000
     29 C10         -4.9260     1.6430     2.7240 ce         1 RRX      -0.425000
     30 C9          -4.0710     1.7340     1.6630 cf         1 RRX       0.047800
     31 C34         -4.5800     2.1960     0.3220 c3         1 RRX      -0.130900
     32 C8          -2.7150     1.3960     1.8220 cf         1 RRX      -0.140000
     33 C6          -0.5130     1.0790     0.9070 ce         1 RRX      -0.117200
     34 C32         -0.5070     0.2500    -1.4210 c3         1 RRX      -0.080600
     35 C31         -0.5070    -1.3580     0.4880 c3         1 RRX      -0.080600
     36 C5           0.2230     1.6720     1.8330 c2         1 RRX      -0.088400
     37 C33         -0.4250     2.7350     2.6830 c3         1 RRX      -0.064900
     38 C4           1.6630     1.3470     2.0860 c3         1 RRX      -0.038200
     39 H1           1.8930    -0.8870    -0.5050 hc         1 RRX       0.045700
     40 H2           1.8930     0.8870    -0.5050 hc         1 RRX       0.045700
     41 H4           3.0920    -0.1400     1.4770 hc         1 RRX       0.046700
     42 H5           1.5290    -0.7970     2.0010 hc         1 RRX       0.046700
     43 H6         -24.6340    -0.5300     9.3150 hc         1 RRX       0.033533
     44 H7         -23.9040     1.0560     9.5950 hc         1 RRX       0.033533
     45 H8         -22.8970    -0.3980     9.6190 hc         1 RRX       0.033533
     46 H9         -21.9910    -1.3010     7.7210 hc         1 RRX       0.033533
     47 H10        -23.5720    -1.8630     7.1610 hc         1 RRX       0.033533
     48 H11        -22.5460    -0.8980     6.0910 hc         1 RRX       0.033533
     49 H12        -25.5520    -0.2840     7.2570 hc         1 RRX       0.055200
     50 H13        -24.6820     0.3870     5.8630 hc         1 RRX       0.055200
     51 H14        -25.3440     1.9750     8.3730 h1         1 RRX       0.034700
     52 H15        -24.6570     3.8760     7.0560 hc         1 RRX       0.048200
     53 H16        -24.5490     2.8880     5.5900 hc         1 RRX       0.048200
     54 H17        -21.2380     3.6120     7.6230 hc         1 RRX       0.046033
     55 H18        -21.4380     3.5120     5.8680 hc         1 RRX       0.046033
     56 H19        -22.4420     4.6230     6.8110 hc         1 RRX       0.046033
     57 H20        -20.7210     3.9040     9.9670 ha         1 RRX       0.198000
     58 H21        -19.7800     2.9460     7.1020 ha         1 RRX       0.170000
     59 H22        -16.7540     3.1620     9.7570 hc         1 RRX       0.046700
     60 H23        -18.4170     2.8860    10.2930 hc         1 RRX       0.046700
     61 H24        -17.5150     1.5850     9.5030 hc         1 RRX       0.046700
     62 H25        -17.7030     3.5400     6.1640 ha         1 RRX       0.134000
     63 H26        -15.6200     2.5380     8.2500 ha         1 RRX       0.139000
     64 H27        -15.4900     3.2940     5.2520 ha         1 RRX       0.132000
     65 H28        -13.7000     2.7750     8.4970 hc         1 RRX       0.050033
     66 H29        -13.5440     1.1270     7.8700 hc         1 RRX       0.050033
     67 H30        -12.1870     2.2550     7.7430 hc         1 RRX       0.050033
     68 H31        -13.2770     3.0480     4.3390 ha         1 RRX       0.128000
     69 H32        -11.1980     2.0480     6.4260 ha         1 RRX       0.158000
     70 H33        -11.0660     2.8030     3.4260 ha         1 RRX       0.095000
     71 H34         -9.7290     3.1500     4.5180 ha         1 RRX       0.290000
     72 H36         -8.4700     2.1640     1.3490 hc         1 RRX       0.048700
     73 H37        -10.0580     2.4810     2.0620 hc         1 RRX       0.048700
     74 H38         -8.8300     3.7540     2.0350 hc         1 RRX       0.048700
     75 H39         -6.7730     1.5570     4.6000 ha         1 RRX       0.177000
     76 H40         -6.6430     2.3120     1.6020 ha         1 RRX       0.096000
     77 H42         -5.6660     1.0010     2.2620 ha         1 RRX       0.288000
     78 H43         -5.0070     1.3550    -0.2110 hc         1 RRX       0.053033
     79 H44         -5.3380     2.9560     0.4660 hc         1 RRX       0.053033
     80 H45         -3.7590     2.6080    -0.2530 hc         1 RRX       0.053033
     81 H46         -2.3610     1.0120     2.7710 ha         1 RRX       0.162000
     82 H48         -0.3470     1.2880    -1.6850 hc         1 RRX       0.036867
     83 H49          0.0320    -0.3860    -2.1140 hc         1 RRX       0.036867
     84 H50         -1.5650     0.0240    -1.4720 hc         1 RRX       0.036867
     85 H51          0.1140    -2.1440     0.0760 hc         1 RRX       0.036867
     86 H52         -0.4630    -1.3920     1.5700 hc         1 RRX       0.036867
     87 H53         -1.5310    -1.4990     0.1630 hc         1 RRX       0.036867
     88 H54         -1.0870     3.3330     2.0700 hc         1 RRX       0.048033
     89 H55         -0.9930     2.2650     3.4770 hc         1 RRX       0.048033
     90 H56          0.3410     3.3690     3.1130 hc         1 RRX       0.048033
     91 H57          1.8360     1.2970     3.1540 hc         1 RRX       0.053200
     92 H58          2.2850     2.1200     1.6530 hc         1 RRX       0.053200
     93 C7          -1.8640     1.4860     0.7660 ce         1 RRX      -0.073000
     94 O2         -26.6690     2.0270     6.7880 oh         1 RRX      -0.608800
     95 C40        -23.7520     0.0780     9.1550 c3         1 RRX      -0.073600
     96 H3         -27.2370     2.3210     7.4810 ho         1 RRX       0.397000
     97 H47         -2.2310     1.8190    -0.1970 ha         1 RRX       0.132000
@<TRIPOS>BOND
     1    38     3 1
     2    38    36 1
     3    37    36 1
     4     3     2 1
     5    36    33 2
     6     2     1 1
     7    33     1 1
     8    33    93 1
     9     1    34 1
    10     1    35 1
    11    93    32 2
    12    32    30 1
    13    31    30 1
    14    30    29 2
    15    29    28 1
    16    28    27 2
    17    27    25 1
    18    26    25 1
    19    25    24 2
    20    24    23 1
    21    23    22 2
    22    22    21 1
    23    21    19 2
    24    19    20 1
    25    19    18 1
    26    18    17 2
    27    17    16 1
    28    16    14 2
    29    14    15 1
    30    14    13 1
    31    13    12 2
    32    95     4 1
    33    12    11 1
    34    11     4 1
    35    11     9 2
    36     4     5 1
    37     4     6 1
    38    10     9 1
    39     9     8 1
    40     7     6 1
    41     7     8 1
    42     7    94 1
    43     2    39 1
    44     2    40 1
    45    94    96 1
    46     3    41 1
    47     3    42 1
    48    95    43 1
    49    95    44 1
    50    95    45 1
    51     5    46 1
    52     5    47 1
    53     5    48 1
    54     6    49 1
    55     6    50 1
    56     7    51 1
    57     8    52 1
    58     8    53 1
    59    10    54 1
    60    10    55 1
    61    10    56 1
    62    12    57 1
    63    13    58 1
    64    15    59 1
    65    15    60 1
    66    15    61 1
    67    16    62 1
    68    17    63 1
    69    18    64 1
    70    20    65 1
    71    20    66 1
    72    20    67 1
    73    21    68 1
    74    22    69 1
    75    23    70 1
    76    24    71 1
    77    26    72 1
    78    26    73 1
    79    26    74 1
    80    27    75 1
    81    28    76 1
    82    29    77 1
    83    31    78 1
    84    31    79 1
    85    31    80 1
    86    32    81 1
    87    93    97 1
    88    34    82 1
    89    34    83 1
    90    34    84 1
    91    35    85 1
    92    35    86 1
    93    35    87 1
    94    37    88 1
    95    37    89 1
    96    37    90 1
    97    38    91 1
    98    38    92 1
@<TRIPOS>SUBSTRUCTURE
     1 RRX         1 TEMP              0 ****  ****    0 ROOT
