@<TRIPOS>MOLECULE
RRX
   97    87     1     0     0
SMALL
bcc


@<TRIPOS>ATOM
      1 C1         -1.3710    2.5760    3.6350 c1        1 RRX     -0.588000
      2 C2         -2.2420   -1.6410    5.0730 c3        1 RRX     -0.195000
      3 C3         -2.8350   -1.4380    3.7360 c2        1 RRX     -0.143000
      4 C30       -20.3230    2.7490    6.2770 c3        1 RRX      0.055000
      5 C39       -18.9170    2.1880    6.0710 c3        1 RRX     -0.212667
      6 C29       -20.6590    3.6910    5.1220 c3        1 RRX     -0.212667
      7 C28       -24.5290    2.3480    5.1640 c1        1 RRX     -0.026000
      8 C27       -25.9710    2.5920    4.9410 c3        1 RRX     -0.303000
      9 C26       -20.4410    4.0710    8.5640 c1        1 RRX     -0.174000
     10 C38       -20.5080    4.7820    9.7980 c3        1 RRX     -0.115000
     11 C25       -20.3830    3.4720    7.5280 c1        1 RRX     -0.162000
     12 C24       -17.3060    4.0180   10.2280 c1        1 RRX      0.220000
     13 C23       -17.0380    3.3290    9.1350 c2        1 RRX     -0.369000
     14 C22       -15.8400    2.7480    8.7290 c1        1 RRX     -0.072000
     15 C37       -10.9090    4.2510    7.9600 c3        1 RRX     -0.272250
     16 C21       -14.8140    2.2440    8.3710 c1        1 RRX     -0.166000
     17 C20       -13.5800    1.6420    7.9510 c3        1 RRX      0.054000
     18 C19       -13.6190    1.0630    6.6480 c1        1 RRX     -0.098000
     19 C18       -13.6730    0.5720    5.5300 c1        1 RRX     -0.130000
     20 C36       -10.5110    1.5480   10.4950 c3        1 RRX     -0.272250
     21 C17       -13.9240    0.0850    4.3170 c1        1 RRX     -0.004000
     22 C16       -13.1220   -0.6030    3.3350 c3        1 RRX     -0.175000
     23 C15       -11.7390   -0.8640    3.6910 c1        1 RRX     -0.058000
     24 C14       -10.6340   -0.7580    2.8310 c2        1 RRX     -0.131000
     25 C13       -10.3320    0.2940    2.0910 c1        1 RRX     -0.113000
     26 C35       -14.7990   -3.8320    2.6810 c3        1 RRX     -0.272250
     27 C12        -9.9810    1.3460    1.4910 c1        1 RRX     -0.137000
     28 C11        -9.6230    2.4260    0.8520 c2        1 RRX     -0.121000
     29 C10        -6.3010    2.8440    0.1520 c1        1 RRX      0.221000
     30 C9         -5.0030    2.9560    0.4170 c2        1 RRX     -0.376000
     31 C34        -4.1210    3.6430   -0.5710 c3        1 RRX     -0.155000
     32 C8         -4.4240    2.4350    1.6420 c2        1 RRX     -0.035000
     33 C6         -2.5340    2.0840    3.2000 c2        1 RRX      0.285000
     34 C32        -0.2660    3.0410    4.0510 c1        1 RRX      0.153000
     35 C31        -1.0850    1.4220   -1.6100 c3        1 RRX     -0.272250
     36 C5         -3.2370    1.0200    3.9830 c3        1 RRX     -0.149000
     37 C33        -6.5930    1.1700    3.8630 c1        1 RRX     -0.049000
     38 C4         -3.2630   -0.2700    3.2480 c2        1 RRX     -0.180000
     39 H1         -1.3260   -1.0090    5.1990 hc        1 RRX      0.086333
     40 H2         -1.9520   -2.7090    5.2220 hc        1 RRX      0.086333
     41 H4         -2.9140   -2.3450    3.1120 ha        1 RRX      0.123000
     42 H5         -2.9690   -1.3610    5.8770 hc        1 RRX      0.086333
     43 H6        -21.0960    0.8980    7.1360 hc        1 RRX      0.083111
     44 H7        -21.2650    1.0310    5.3360 hc        1 RRX      0.083111
     45 H8        -22.3700    1.9790    6.4270 hc        1 RRX      0.083111
     46 H9        -18.1660    3.0130    6.0470 hc        1 RRX      0.083111
     47 H10       -18.8700    1.6340    5.1030 hc        1 RRX      0.083111
     48 H11       -18.6540    1.4850    6.8970 hc        1 RRX      0.083111
     49 H12       -19.9180    4.5230    5.0700 hc        1 RRX      0.083111
     50 H13       -20.6330    3.1280    4.1570 hc        1 RRX      0.083111
     51 H14       -21.6770    4.1290    5.2590 hc        1 RRX      0.083111
     52 H15       -26.5020    1.6130    5.0630 hc        1 RRX      0.104333
     53 H16       -26.2360    3.0280    3.9470 hc        1 RRX      0.104333
     54 H17       -26.3260    3.2820    5.7490 hc        1 RRX      0.104333
     55 H18       -21.2740    4.3230   10.4760 hc        1 RRX      0.099000
     56 H19       -19.5130    4.7580   10.3230 hc        1 RRX      0.099000
     57 H20       -17.9030    3.1910    8.4280 ha        1 RRX      0.222000
     58 H21       -20.7870    5.8530    9.6220 hc        1 RRX      0.099000
     59 H22       -10.1060    5.0190    7.9800 hc        1 RRX      0.068375
     60 H23       -11.8900    4.7380    8.1510 hc        1 RRX      0.068375
     61 H24       -10.9260    3.7600    6.9630 hc        1 RRX      0.068375
     62 H25       -10.7120    3.4890    8.7480 hc        1 RRX      0.068375
     63 H26       -12.7550    2.4240    7.9770 hc        1 RRX      0.137000
     64 H27       -13.2870    0.8350    8.6930 hc        1 RRX      0.137000
     65 H28       -10.4880    0.6960   11.2080 hc        1 RRX      0.068375
     66 H29       -10.5860    2.5030   11.0600 hc        1 RRX      0.068375
     67 H30       -11.3920    1.4460    9.8230 hc        1 RRX      0.068375
     68 H31        -9.5810    1.5490    9.8870 hc        1 RRX      0.068375
     69 H32       -13.6150   -1.6220    3.1770 hc        1 RRX      0.161000
     70 H33       -13.2570   -0.0430    2.3560 hc        1 RRX      0.161000
     71 H34        -9.9140   -1.6020    2.8920 ha        1 RRX      0.168000
     72 H36       -15.5360   -3.0450    2.9520 hc        1 RRX      0.068375
     73 H37       -15.3350   -4.7840    2.4740 hc        1 RRX      0.068375
     74 H38       -14.0900   -3.9840    3.5250 hc        1 RRX      0.068375
     75 H39       -14.2370   -3.5210    1.7730 hc        1 RRX      0.068375
     76 H40       -10.2890    3.2980    0.7670 ha        1 RRX      0.149500
     77 H42        -8.6360    2.5210    0.3650 ha        1 RRX      0.149500
     78 H43        -4.6910    3.9500   -1.4820 hc        1 RRX      0.095000
     79 H44        -3.6740    4.5560   -0.1050 hc        1 RRX      0.095000
     80 H45        -3.2930    2.9550   -0.8820 hc        1 RRX      0.095000
     81 H46        -2.4260    3.1200    1.3070 ha        1 RRX      0.152000
     82 H48        -1.4200    4.4550   -0.2460 ha        1 RRX      0.001000
     83 H49        -0.8370    4.5000    0.0980 ha        1 RRX      0.001000
     84 H50        -1.0900    2.2750   -0.8960 hc        1 RRX      0.068375
     85 H51        -0.6820    0.5180   -1.1040 hc        1 RRX      0.068375
     86 H52        -2.1220    1.2210   -1.9570 hc        1 RRX      0.068375
     87 H53        -0.4440    1.6740   -2.4830 hc        1 RRX      0.068375
     88 H54        -4.3020    1.3490    4.1740 hc        1 RRX      0.116000
     89 H55        -6.9330    1.6460    4.7950 ha        1 RRX      0.029000
     90 H56        -7.0400    0.1750    3.7220 ha        1 RRX      0.029000
     91 H57        -3.6860   -0.2090    2.2300 ha        1 RRX      0.127000
     92 H58        -2.7380    0.8980    4.9830 hc        1 RRX      0.116000
     93 C7         -3.1260    2.5760    1.9700 c2        1 RRX     -0.204000
     94 O2        -23.7840    2.6980    4.1300 oh        1 RRX     -0.240000
     95 C40       -21.3260    1.5970    6.2970 c3        1 RRX     -0.212667
     96 H3        -22.8540    2.5080    4.3590 ho        1 RRX      0.253000
     97 H47        -5.1380    1.9160    2.3240 ha        1 RRX      0.180000
@<TRIPOS>BOND
     1    1   33 1   
     2    1   34 1   
     3    2    3 1   
     4    2   39 1   
     5    2   40 1   
     6    2   42 1   
     7    3   38 1   
     8    3   41 1   
     9    4    5 1   
    10    4    6 1   
    11    4   11 1   
    12    4   95 1   
    13    5   46 1   
    14    5   47 1   
    15    5   48 1   
    16    6   49 1   
    17    6   50 1   
    18    6   51 1   
    19    7    8 1   
    20    7   94 1   
    21    8   52 1   
    22    8   53 1   
    23    8   54 1   
    24    9   10 1   
    25    9   11 1   
    26   10   55 1   
    27   10   56 1   
    28   10   58 1   
    29   12   13 1   
    30   13   14 1   
    31   13   57 1   
    32   14   16 1   
    33   15   59 1   
    34   15   60 1   
    35   15   61 1   
    36   15   62 1   
    37   16   17 1   
    38   17   18 1   
    39   17   63 1   
    40   17   64 1   
    41   18   19 1   
    42   19   21 1   
    43   20   65 1   
    44   20   66 1   
    45   20   67 1   
    46   20   68 1   
    47   21   22 1   
    48   22   23 1   
    49   22   69 1   
    50   22   70 1   
    51   23   24 1   
    52   24   25 1   
    53   24   71 1   
    54   25   27 1   
    55   26   72 1   
    56   26   73 1   
    57   26   74 1   
    58   26   75 1   
    59   27   28 1   
    60   28   76 1   
    61   28   77 1   
    62   29   30 1   
    63   30   31 1   
    64   30   32 1   
    65   31   78 1   
    66   31   79 1   
    67   31   80 1   
    68   32   93 1   
    69   32   97 1   
    70   33   36 1   
    71   33   93 1   
    72   35   84 1   
    73   35   85 1   
    74   35   86 1   
    75   35   87 1   
    76   36   38 1   
    77   36   88 1   
    78   36   92 1   
    79   37   89 1   
    80   37   90 1   
    81   38   91 1   
    82   43   95 1   
    83   44   95 1   
    84   45   95 1   
    85   81   93 1   
    86   82   83 1   
    87   94   96 1   
@<TRIPOS>SUBSTRUCTURE
     1 RRX         1 TEMP              0 ****  ****    0 ROOT
