@<TRIPOS>MOLECULE
RS1
   48    50     1     0     0
SMALL
bcc


@<TRIPOS>ATOM
      1 C1           0.0000     0.0000     0.0000 ca         1 RS1      -0.057500
      2 C2           1.3840     0.0000     0.0000 ca         1 RS1      -0.069600
      3 C3           2.0770     0.0000     1.1970 ca         1 RS1      -0.057500
      4 C4           1.3890     0.0010     2.3940 ca         1 RS1      -0.164500
      5 C5           0.0030     0.0010     2.3970 ca         1 RS1       0.129100
      6 C6          -0.6910    -0.0050     1.1960 ca         1 RS1      -0.164500
      7 O11         -0.6760     0.0000     3.5740 os         1 RS1      -0.200200
      8 C12          0.2490    -0.1340     4.5600 ca         1 RS1       0.147100
      9 C13          0.6880    -1.3950     4.9350 ca         1 RS1      -0.154500
     10 C14          1.6280    -1.5280     5.9380 ca         1 RS1       0.017500
     11 C15          2.1310    -0.4060     6.5680 ca         1 RS1      -0.173500
     12 C16          1.6930     0.8510     6.2010 ca         1 RS1       0.017500
     13 C17          0.7570     0.9910     5.1950 ca         1 RS1      -0.154500
     14 S22          3.3300    -0.5790     7.8480 sy         1 RS1       0.881300
     15 O23          3.0600    -1.8780     8.3580 o          1 RS1      -0.569300
     16 O24          3.1310     0.5920     8.6260 o          1 RS1      -0.569300
     17 C25          4.9030    -0.5260     6.9500 c3         1 RS1      -0.001600
     18 C26          6.0610    -0.6680     7.9400 c3         1 RS1      -0.108000
     19 C29          7.3940    -0.6330     7.1830 c3         1 RS1      -0.063400
     20 C30          8.5310    -0.9330     8.1610 c3         1 RS1       0.189900
     21 O31          8.3610    -2.2350     8.7160 os         1 RS1      -0.392600
     22 C32          7.1980    -2.2040     9.5430 c3         1 RS1       0.189900
     23 C33          5.9520    -2.0070     8.6770 c3         1 RS1      -0.063400
     24 C40          6.0150     0.4620     8.9360 c          1 RS1       0.565100
     25 N41          6.0340     1.7390     8.5070 ns         1 RS1      -0.040400
     26 O42          5.9620     0.2210    10.1230 o          1 RS1      -0.596100
     27 O43          5.8850     2.7990     9.4320 oh         1 RS1      -0.426100
     28 Cl2          2.2500    -0.0000    -1.5040 cl         1 RS1      -0.024400
     29 H1          -0.5410    -0.0020    -0.9380 ha         1 RS1       0.114500
     30 H3           3.1610    -0.0000     1.1950 ha         1 RS1       0.114500
     31 H4           1.9330     0.0030     3.3320 ha         1 RS1       0.128500
     32 H6          -1.7750    -0.0050     1.1950 ha         1 RS1       0.128500
     33 H13          0.2930    -2.2750     4.4420 ha         1 RS1       0.125500
     34 H14          1.9720    -2.5130     6.2300 ha         1 RS1       0.126000
     35 H16          2.0890     1.7290     6.6970 ha         1 RS1       0.126000
     36 H17          0.4130     1.9770     4.9070 ha         1 RS1       0.125500
     37 H251         4.9390    -1.3400     6.2350 h1         1 RS1       0.068200
     38 H252         4.9890     0.4180     6.4270 h1         1 RS1       0.068200
     39 H291         7.3840    -1.3820     6.4010 hc         1 RS1       0.037200
     40 H292         7.5380     0.3490     6.7510 hc         1 RS1       0.037200
     41 H301         8.5220    -0.1990     8.9580 h1         1 RS1       0.023950
     42 H302         9.4770    -0.8880     7.6350 h1         1 RS1       0.023950
     43 H321         7.2800    -1.3830    10.2450 h1         1 RS1       0.023950
     44 H322         7.1160    -3.1390    10.0820 h1         1 RS1       0.023950
     45 H331         5.8830    -2.8120     7.9550 hc         1 RS1       0.037200
     46 H332         5.0710    -2.0020     9.3080 hc         1 RS1       0.037200
     47 HN           6.1820     1.9380     7.5370 hn         1 RS1       0.150500
     48 HO           5.9040     3.6220     8.9740 ho         1 RS1       0.391000
@<TRIPOS>BOND
     1     1     2 ar  
     2     1     6 ar  
     3     1    29 1   
     4     2     3 ar  
     5     2    28 1   
     6     3     4 ar  
     7     3    30 1   
     8     4     5 ar  
     9     4    31 1   
    10     5     6 ar  
    11     5     7 1   
    12     6    32 1   
    13     7     8 1   
    14     8     9 ar  
    15     8    13 ar  
    16     9    10 ar  
    17     9    33 1   
    18    10    11 ar  
    19    10    34 1   
    20    11    12 ar  
    21    11    14 1   
    22    12    13 ar  
    23    12    35 1   
    24    13    36 1   
    25    14    15 2   
    26    14    16 2   
    27    14    17 1   
    28    17    18 1   
    29    17    37 1   
    30    17    38 1   
    31    18    19 1   
    32    18    23 1   
    33    18    24 1   
    34    19    20 1   
    35    19    39 1   
    36    19    40 1   
    37    20    21 1   
    38    20    41 1   
    39    20    42 1   
    40    21    22 1   
    41    22    23 1   
    42    22    43 1   
    43    22    44 1   
    44    23    45 1   
    45    23    46 1   
    46    24    25 1   
    47    24    26 2   
    48    25    27 1   
    49    25    47 1   
    50    27    48 1   
@<TRIPOS>SUBSTRUCTURE
     1 RS1         1 TEMP              0 ****  ****    0 ROOT
