@<TRIPOS>MOLECULE
molecule
   48    50     1     0     0
SMALL
bcc


@<TRIPOS>ATOM
      1 C1           0.0000     0.0000     0.0000 ca         1 RS2      -0.095500
      2 C2           1.3820     0.0000     0.0000 ca         1 RS2      -0.156000
      3 C3           2.0770     0.0000     1.1950 ca         1 RS2      -0.095500
      4 C4           1.3900    -0.0000     2.3940 ca         1 RS2      -0.179500
      5 C5           0.0040    -0.0010     2.3960 ca         1 RS2       0.113100
      6 C6          -0.6920    -0.0070     1.1960 ca         1 RS2      -0.179500
      7 O12         -0.6750    -0.0010     3.5750 os         1 RS2      -0.220200
      8 C13          0.2510     0.1300     4.5600 ca         1 RS2       0.136100
      9 C14          0.7560    -0.9960     5.1940 ca         1 RS2      -0.165000
     10 C15          1.6960    -0.8600     6.1960 ca         1 RS2      -0.027000
     11 C16          2.1350     0.3980     6.5670 ca         1 RS2      -0.305500
     12 C17          1.6290     1.5220     5.9430 ca         1 RS2      -0.027000
     13 C18          0.6910     1.3910     4.9370 ca         1 RS2      -0.165000
     14 S23          3.3340     0.5680     7.8470 sy         1 RS2       1.205300
     15 C24          4.9080     0.5130     6.9470 c3         1 RS2      -0.157200
     16 O25          3.1340    -0.6040     8.6240 o          1 RS2      -0.593300
     17 O26          3.0680     1.8670     8.3570 o          1 RS2      -0.593300
     18 C27          4.9720    -0.7620     6.1040 c3         1 RS2      -0.136400
     19 C28          4.9340    -1.9650     7.0080 c          1 RS2       0.646100
     20 O31          4.9770    -1.8210     8.2120 o          1 RS2      -0.534100
     21 N32          4.8500    -3.2030     6.4810 ns         1 RS2      -0.469400
     22 O33          4.8130    -4.3340     7.3310 oh         1 RS2      -0.351100
     23 C36          6.0710     0.5280     7.9450 c3         1 RS2      -0.106400
     24 C37          7.3880     0.6430     7.1740 c3         1 RS2       0.132900
     25 O38          7.4100     1.8610     6.4330 os         1 RS2      -0.395600
     26 C39          6.4210     1.7620     5.4090 c3         1 RS2       0.132900
     27 C40          5.0260     1.7400     6.0360 c3         1 RS2      -0.106400
     28 H1          -0.5410    -0.0020    -0.9380 ha         1 RS2       0.133000
     29 H2           1.9230     0.0030    -0.9390 ha         1 RS2       0.133000
     30 H3           3.1600     0.0000     1.1920 ha         1 RS2       0.133000
     31 H4           1.9340     0.0020     3.3310 ha         1 RS2       0.145500
     32 H6          -1.7750    -0.0070     1.1960 ha         1 RS2       0.145500
     33 H14          0.4130    -1.9820     4.9030 ha         1 RS2       0.152000
     34 H15          2.0930    -1.7390     6.6890 ha         1 RS2       0.159500
     35 H17          1.9730     2.5060     6.2360 ha         1 RS2       0.159500
     36 H18          0.2950     2.2720     4.4470 ha         1 RS2       0.152000
     37 H271         4.1250    -0.7910     5.4290 hc         1 RS2       0.074700
     38 H272         5.8910    -0.7700     5.5310 hc         1 RS2       0.074700
     39 HNW          4.8410    -3.3230     5.4870 hn         1 RS2       0.318500
     40 HOX          5.0270    -5.1070     6.8350 ho         1 RS2       0.398000
     41 H361         5.9670     1.3770     8.6090 hc         1 RS2       0.079700
     42 H362         6.0680    -0.3910     8.5190 hc         1 RS2       0.079700
     43 H371         7.4780    -0.1940     6.4920 h1         1 RS2       0.048450
     44 H372         8.2150     0.6340     7.8740 h1         1 RS2       0.048450
     45 H391         6.5770     0.8490     4.8480 h1         1 RS2       0.048450
     46 H392         6.5030     2.6160     4.7470 h1         1 RS2       0.048450
     47 H401         4.2790     1.6820     5.2530 hc         1 RS2       0.079700
     48 H402         4.8780     2.6400     6.6200 hc         1 RS2       0.079700
@<TRIPOS>BOND
     1     1     2 ar
     2     1     6 ar
     3     1    28 1
     4     2     3 ar
     5     2    29 1
     6     3     4 ar
     7     3    30 1
     8     4     5 ar
     9     4    31 1
    10     5     6 ar
    11     5     7 1
    12     6    32 1
    13     7     8 1
    14     8     9 ar
    15     8    13 ar
    16     9    10 ar
    17     9    33 1
    18    10    11 ar
    19    10    34 1
    20    11    12 ar
    21    11    14 1
    22    12    13 ar
    23    12    35 1
    24    13    36 1
    25    14    15 1
    26    14    16 2
    27    14    17 2
    28    15    18 1
    29    15    23 1
    30    15    27 1
    31    18    19 1
    32    18    37 1
    33    18    38 1
    34    19    20 2
    35    19    21 1
    36    21    22 1
    37    21    39 1
    38    22    40 1
    39    23    24 1
    40    23    41 1
    41    23    42 1
    42    24    25 1
    43    24    43 1
    44    24    44 1
    45    25    26 1
    46    26    27 1
    47    26    45 1
    48    26    46 1
    49    27    47 1
    50    27    48 1
@<TRIPOS>SUBSTRUCTURE
     1 RS2         1 TEMP              0 ****  ****    0 ROOT
