@<TRIPOS>MOLECULE
molecule
   52    54     1     0     0
SMALL
bcc


@<TRIPOS>ATOM
      1 O4           0.0000     0.0000     0.0000 o          1 RS3      -0.573500
      2 C4           1.2160     0.0000     0.0000 c          1 RS3       0.614000
      3 N3           1.9210     0.0000     1.1550 ns         1 RS3      -0.593500
      4 C2           3.2620    -0.0050     1.1520 c          1 RS3       0.855900
      5 O2           3.8360    -0.0050     2.2280 o          1 RS3      -0.604500
      6 C4A          1.9860    -0.0070    -1.2610 cc         1 RS3       0.290800
      7 C10          3.4540    -0.0060    -1.1550 cc         1 RS3       0.082400
      8 N1           4.0030    -0.0110     0.0480 nd         1 RS3      -0.432400
      9 N5           1.4040    -0.0120    -2.4350 nd         1 RS3      -0.538000
     10 C5A          2.1280    -0.0180    -3.5580 ca         1 RS3       0.307600
     11 C6           1.4760    -0.0240    -4.8100 ca         1 RS3      -0.096300
     12 C7           2.2060    -0.0320    -5.9570 ca         1 RS3      -0.097300
     13 C7M          1.5020    -0.0380    -7.2890 c3         1 RS3      -0.033800
     14 C8           3.6060    -0.0320    -5.9110 ca         1 RS3       0.165600
     15 N8           4.3340    -0.0380    -7.0920 nh         1 RS3      -0.625000
     16 C19          5.1230     1.1940    -7.2310 c3         1 RS3       0.155600
     17 C20          5.1930    -1.2260    -7.1740 c3         1 RS3       0.155600
     18 C9           4.2700    -0.0240    -4.6930 ca         1 RS3      -0.233000
     19 C9A          3.5430    -0.0180    -3.5110 ca         1 RS3      -0.013600
     20 N10          4.1990    -0.0110    -2.2970 na         1 RS3      -0.084100
     21 C1'          5.6630    -0.0120    -2.2360 c3         1 RS3       0.031300
     22 C2'          6.1730    -1.4540    -2.2070 c3         1 RS3       0.134100
     23 O2'          5.6480    -2.1210    -1.0580 oh         1 RS3      -0.551800
     24 C3'          7.7020    -1.4530    -2.1440 c3         1 RS3       0.131100
     25 O3'          8.2250    -0.7850    -3.2930 oh         1 RS3      -0.614800
     26 C4'          8.2110    -2.8960    -2.1140 c3         1 RS3       0.136100
     27 O4'          7.6870    -3.5630    -0.9650 oh         1 RS3      -0.585800
     28 C5'          9.7400    -2.8950    -2.0510 c3         1 RS3       0.106400
     29 O5'         10.2210    -4.2380    -2.1420 oh         1 RS3      -0.614800
     30 HN3          1.4320     0.0040     2.0290 hn         1 RS3       0.354500
     31 H6           0.3940    -0.0270    -4.8570 ha         1 RS3       0.166000
     32 H17M         1.5990     0.9350    -7.7530 hc         1 RS3       0.050700
     33 H27M         0.4530    -0.2660    -7.1420 hc         1 RS3       0.050700
     34 H37M         1.9480    -0.7900    -7.9290 hc         1 RS3       0.050700
     35 H119         4.5370     2.0380    -6.8890 h1         1 RS3       0.041700
     36 H219         6.0240     1.1140    -6.6340 h1         1 RS3       0.041700
     37 H319         5.3900     1.3360    -8.2710 h1         1 RS3       0.041700
     38 H120         4.6940    -2.0660    -6.7060 h1         1 RS3       0.041700
     39 H220         5.3910    -1.4570    -8.2140 h1         1 RS3       0.041700
     40 H320         6.1290    -1.0310    -6.6640 h1         1 RS3       0.041700
     41 H9           5.3530    -0.0240    -4.6650 ha         1 RS3       0.155000
     42 H11'         5.9870     0.5030    -1.3390 h1         1 RS3       0.090700
     43 H21'         6.0610     0.4950    -3.1070 h1         1 RS3       0.090700
     44 H2'          5.8490    -1.9690    -3.1030 h1         1 RS3       0.041700
     45 HO2'         5.2620    -2.9410    -1.3190 ho         1 RS3       0.406000
     46 H3'          8.0260    -0.9380    -1.2480 h1         1 RS3       0.069700
     47 HO3'         8.9270    -0.2130    -3.0310 ho         1 RS3       0.412000
     48 H4'          7.8870    -3.4120    -3.0100 h1         1 RS3       0.047700
     49 HO4'         7.7940    -4.4940    -1.0660 ho         1 RS3       0.416000
     50 H15'        10.1350    -2.3130    -2.8750 h1         1 RS3       0.032700
     51 H25'        10.0620    -2.4590    -1.1130 h1         1 RS3       0.032700
     52 HO5'        11.1640    -4.2340    -2.1530 ho         1 RS3       0.410000
@<TRIPOS>BOND
     1     2     6 1
     2     2     1 2
     3     3     2 1
     4     3    30 1
     5     4     8 1
     6     4     3 1
     7     5     4 2
     8     6     9 2
     9     7    20 1
    10     7     6 1
    11     8     7 2
    12     9    10 1
    13    10    11 ar
    14    11    12 ar
    15    11    31 1
    16    12    13 1
    17    13    32 1
    18    13    33 1
    19    13    34 1
    20    14    15 1
    21    14    12 ar
    22    15    17 1
    23    16    15 1
    24    16    35 1
    25    16    36 1
    26    16    37 1
    27    17    38 1
    28    17    39 1
    29    17    40 1
    30    18    14 ar
    31    18    41 1
    32    19    18 ar
    33    19    10 ar
    34    20    19 1
    35    21    20 1
    36    21    42 1
    37    21    43 1
    38    22    21 1
    39    22    44 1
    40    23    22 1
    41    23    45 1
    42    24    26 1
    43    24    22 1
    44    24    46 1
    45    25    24 1
    46    25    47 1
    47    26    27 1
    48    26    48 1
    49    27    49 1
    50    28    26 1
    51    28    50 1
    52    28    51 1
    53    29    28 1
    54    29    52 1
@<TRIPOS>SUBSTRUCTURE
     1 RS3         1 TEMP              0 ****  ****    0 ROOT
