@<TRIPOS>MOLECULE
RS3
   52    54     1     0     0
SMALL
bcc


@<TRIPOS>ATOM
      1 O4           0.0000     0.0000     0.0000 o          1 RS3      -0.621500
      2 C4           1.2160     0.0000     0.0000 c          1 RS3       0.526000
      3 N3           1.9210     0.0000     1.1550 ns         1 RS3      -0.176500
      4 C2           3.2620    -0.0050     1.1520 c          1 RS3       0.732900
      5 O2           3.8360    -0.0050     2.2280 o          1 RS3      -0.652500
      6 C4A          1.9860    -0.0070    -1.2610 cc         1 RS3       0.212800
      7 C10          3.4540    -0.0060    -1.1550 cc         1 RS3      -0.114600
      8 N1           4.0030    -0.0110     0.0480 nd         1 RS3      -0.352400
      9 N5           1.4040    -0.0120    -2.4350 nd         1 RS3      -0.386000
     10 C5A          2.1280    -0.0180    -3.5580 ca         1 RS3       0.255600
     11 C6           1.4760    -0.0240    -4.8100 ca         1 RS3      -0.069300
     12 C7           2.2060    -0.0320    -5.9570 ca         1 RS3      -0.103300
     13 C7M          1.5020    -0.0380    -7.2890 c3         1 RS3       0.070200
     14 C8           3.6060    -0.0320    -5.9110 ca         1 RS3       0.098600
     15 N8           4.3340    -0.0380    -7.0920 nh         1 RS3      -0.414000
     16 C19          5.1230     1.1940    -7.2310 c3         1 RS3       0.179600
     17 C20          5.1930    -1.2260    -7.1740 c3         1 RS3       0.179600
     18 C9           4.2700    -0.0240    -4.6930 ca         1 RS3      -0.213000
     19 C9A          3.5430    -0.0180    -3.5110 ca         1 RS3      -0.172600
     20 N10          4.1990    -0.0110    -2.2970 na         1 RS3       0.382900
     21 C1'          5.6630    -0.0120    -2.2360 c3         1 RS3      -0.082700
     22 C2'          6.1730    -1.4540    -2.2070 c3         1 RS3       0.170100
     23 O2'          5.6480    -2.1210    -1.0580 oh         1 RS3      -0.535800
     24 C3'          7.7020    -1.4530    -2.1440 c3         1 RS3       0.164100
     25 O3'          8.2250    -0.7850    -3.2930 oh         1 RS3      -0.594800
     26 C4'          8.2110    -2.8960    -2.1140 c3         1 RS3       0.162100
     27 O4'          7.6870    -3.5630    -0.9650 oh         1 RS3      -0.566800
     28 C5'          9.7400    -2.8950    -2.0510 c3         1 RS3       0.185400
     29 O5'         10.2210    -4.2380    -2.1420 oh         1 RS3      -0.596800
     30 HN3          1.4320     0.0040     2.0290 hn         1 RS3       0.203500
     31 H6           0.3940    -0.0270    -4.8570 ha         1 RS3       0.130000
     32 H17M         1.5990     0.9350    -7.7530 hc         1 RS3       0.014700
     33 H27M         0.4530    -0.2660    -7.1420 hc         1 RS3       0.014700
     34 H37M         1.9480    -0.7900    -7.9290 hc         1 RS3       0.014700
     35 H119         4.5370     2.0380    -6.8890 h1         1 RS3       0.007867
     36 H219         6.0240     1.1140    -6.6340 h1         1 RS3       0.007867
     37 H319         5.3900     1.3360    -8.2710 h1         1 RS3       0.007867
     38 H120         4.6940    -2.0660    -6.7060 h1         1 RS3       0.007867
     39 H220         5.3910    -1.4570    -8.2140 h1         1 RS3       0.007867
     40 H320         6.1290    -1.0310    -6.6640 h1         1 RS3       0.007867
     41 H9           5.3530    -0.0240    -4.6650 ha         1 RS3       0.142000
     42 H11'         5.9870     0.5030    -1.3390 h1         1 RS3       0.065200
     43 H21'         6.0610     0.4950    -3.1070 h1         1 RS3       0.065200
     44 H2'          5.8490    -1.9690    -3.1030 h1         1 RS3       0.007700
     45 HO2'         5.2620    -2.9410    -1.3190 ho         1 RS3       0.390000
     46 H3'          8.0260    -0.9380    -1.2480 h1         1 RS3       0.034700
     47 HO3'         8.9270    -0.2130    -3.0310 ho         1 RS3       0.400000
     48 H4'          7.8870    -3.4120    -3.0100 h1         1 RS3       0.013700
     49 HO4'         7.7940    -4.4940    -1.0660 ho         1 RS3       0.399000
     50 H15'        10.1350    -2.3130    -2.8750 h1         1 RS3      -0.002300
     51 H25'        10.0620    -2.4590    -1.1130 h1         1 RS3      -0.002300
     52 HO5'        11.1640    -4.2340    -2.1530 ho         1 RS3       0.397000
@<TRIPOS>BOND
     1     1     2 2   
     2     2     3 1   
     3     2     6 1   
     4     3     4 1   
     5     3    30 1   
     6     4     5 2   
     7     4     8 1   
     8     6     7 1   
     9     6     9 2   
    10     7     8 2   
    11     7    20 1   
    12     9    10 1   
    13    10    11 ar  
    14    10    19 ar  
    15    11    12 ar  
    16    11    31 1   
    17    12    13 1   
    18    12    14 ar  
    19    13    32 1   
    20    13    33 1   
    21    13    34 1   
    22    14    15 1   
    23    14    18 ar  
    24    15    16 1   
    25    15    17 1   
    26    16    35 1   
    27    16    36 1   
    28    16    37 1   
    29    17    38 1   
    30    17    39 1   
    31    17    40 1   
    32    18    19 ar  
    33    18    41 1   
    34    19    20 1   
    35    20    21 1   
    36    21    22 1   
    37    21    42 1   
    38    21    43 1   
    39    22    23 1   
    40    22    24 1   
    41    22    44 1   
    42    23    45 1   
    43    24    25 1   
    44    24    26 1   
    45    24    46 1   
    46    25    47 1   
    47    26    27 1   
    48    26    28 1   
    49    26    48 1   
    50    27    49 1   
    51    28    29 1   
    52    28    50 1   
    53    28    51 1   
    54    29    52 1   
@<TRIPOS>SUBSTRUCTURE
     1 RS3         1 TEMP              0 ****  ****    0 ROOT
