@<TRIPOS>MOLECULE
molecule
   38    38     1     0     0
SMALL
bcc


@<TRIPOS>ATOM
      1 C1           0.0000     0.0000     0.0000 c          1 RS7       0.873800
      2 O19          1.2190     0.0000     0.0000 o          1 RS7      -0.839300
      3 O18         -0.7740     0.0000     1.1110 o          1 RS7      -0.839300
      4 C2          -0.8780     0.0010    -1.1880 ce         1 RS7      -0.142200
      5 C3          -0.3360    -0.0100    -2.4240 cf         1 RS7      -0.246200
      6 C4          -1.0930    -0.0200    -3.6710 ca         1 RS7       0.040200
      7 C5          -1.4560    -1.2550    -4.2090 ca         1 RS7      -0.143000
      8 C6          -2.1800    -1.3110    -5.4000 ca         1 RS7      -0.133000
      9 C7          -2.5400    -0.1330    -6.0530 ca         1 RS7      -0.154000
     10 C8          -2.1770     1.1020    -5.5160 ca         1 RS7      -0.128000
     11 C9          -1.4530     1.1610    -4.3250 ca         1 RS7       0.027000
     12 C10         -1.0970     2.4440    -3.8040 cg         1 RS7      -0.101000
     13 C11         -0.8180     3.5260    -3.3610 c1         1 RS7      -0.146100
     14 C12         -0.0910     4.8150    -2.7470 c3         1 RS7       0.080700
     15 C13         -0.6200     5.9160    -3.5340 c3         1 RS7      -0.106400
     16 C14         -0.1950     7.1500    -3.3480 c3         1 RS7      -0.067400
     17 C15         -0.9080     8.3640    -4.0180 c3         1 RS7      -0.086400
     18 C16         -0.1950     9.6470    -3.6930 c3         1 RS7      -0.116400
     19 C17         -0.8720    11.0380    -4.6240 c3         1 RS7      -0.115100
     20 H21         -1.8970    -0.3470    -1.0770 ha         1 RS7       0.107000
     21 H31          0.7350     0.0080    -2.2630 ha         1 RS7       0.170000
     22 H5          -1.5130    -2.1190    -3.5570 ha         1 RS7       0.143000
     23 H6          -2.1100    -2.2940    -5.8490 ha         1 RS7       0.121000
     24 H7          -2.8490    -0.0360    -7.0870 ha         1 RS7       0.116000
     25 H8          -2.5450     2.0470    -5.8960 ha         1 RS7       0.125000
     26 H121         0.9720     4.7650    -2.9490 hc         1 RS7       0.068700
     27 H122        -0.3820     5.1100    -1.7460 hc         1 RS7       0.068700
     28 H131        -1.6670     6.1890    -3.4830 hc         1 RS7       0.037200
     29 H132        -0.6090     5.7980    -4.6110 hc         1 RS7       0.037200
     30 H141         0.8890     7.1620    -3.3480 hc         1 RS7       0.019200
     31 H142        -0.1650     7.3780    -2.2900 hc         1 RS7       0.019200
     32 H151        -0.5940     8.3670    -5.0550 hc         1 RS7       0.035700
     33 H152        -1.9800     8.3850    -4.1740 hc         1 RS7       0.035700
     34 H161         0.8550     9.6090    -3.9530 hc         1 RS7       0.046200
     35 H162        -0.4820     9.7670    -2.6550 hc         1 RS7       0.046200
     36 H171        -0.6290    10.7970    -5.6520 hc         1 RS7       0.048700
     37 H172        -1.8710    10.7130    -4.3600 hc         1 RS7       0.048700
     38 H173        -0.4130    11.9240    -4.2020 hc         1 RS7       0.048700
@<TRIPOS>BOND
     1    19    18 1
     2     2     1 1
     3     3     1 1
     4    18    17 1
     5     1     4 1
     6     4     5 2
     7     5     6 1
     8     7     6 ar
     9     7     8 ar
    10     6    11 ar
    11    17    16 1
    12     8     9 ar
    13    11    12 1
    14    11    10 ar
    15    12    13 3
    16    16    15 1
    17     9    10 ar
    18    13    14 1
    19    14    15 1
    20     4    20 1
    21     5    21 1
    22     7    22 1
    23     8    23 1
    24     9    24 1
    25    10    25 1
    26    14    26 1
    27    14    27 1
    28    15    28 1
    29    15    29 1
    30    16    30 1
    31    16    31 1
    32    17    32 1
    33    17    33 1
    34    18    34 1
    35    18    35 1
    36    19    36 1
    37    19    37 1
    38    19    38 1
@<TRIPOS>SUBSTRUCTURE
     1 RS7         1 TEMP              0 ****  ****    0 ROOT
