@<TRIPOS>MOLECULE
RS7
   38    37     1     0     0
SMALL
bcc


@<TRIPOS>ATOM
      1 C1          0.0440   -2.5990   -0.1870 c2        1 RS7      0.416000
      2 O19         0.9030   -3.2730    0.4270 o         1 RS7     -0.529500
      3 O18        -0.6140   -2.9520   -1.1960 o         1 RS7     -0.529500
      4 C2         -0.2600   -1.1890    0.4050 c2        1 RS7     -0.531000
      5 C3         -0.0610   -0.1090   -0.2700 c1        1 RS7      0.005000
      6 C4         -1.1030    0.4830   -3.3250 ca        1 RS7     -0.113000
      7 C5         -1.3810   -0.8650   -3.5600 ca        1 RS7     -0.140500
      8 C6         -1.9460   -1.2590   -4.7720 ca        1 RS7     -0.126000
      9 C7         -2.2360   -0.3100   -5.7540 ca        1 RS7     -0.140500
     10 C8         -1.9620    1.0360   -5.5280 ca        1 RS7     -0.113000
     11 C9         -1.3930    1.4420   -4.3090 ca        1 RS7     -0.004000
     12 C10        -1.1170    2.8040   -4.0820 c1        1 RS7     -0.078000
     13 C11        -0.8790    3.9620   -3.8840 c1        1 RS7     -0.201000
     14 C12        -0.5720    5.3370   -3.6360 c3        1 RS7     -0.036000
     15 C13        -1.8220    6.1810   -3.4430 c3        1 RS7     -0.156000
     16 C14        -1.4600    7.6260   -3.1760 c3        1 RS7     -0.159000
     17 C15        -2.6990    8.4740   -2.9830 c3        1 RS7     -0.158000
     18 C16        -2.3410    9.9200   -2.7130 c3        1 RS7     -0.159000
     19 C17        -3.5710   10.7690   -2.5220 c3        1 RS7     -0.209000
     20 H21        -0.6140   -1.3190    1.4330 ha        1 RS7      0.180000
     21 H31        -0.6540    0.7790   -2.3570 ha        1 RS7      0.151500
     22 H5         -1.1490   -1.6150   -2.7730 ha        1 RS7      0.162000
     23 H6         -2.1620   -2.3220   -4.9520 ha        1 RS7      0.128000
     24 H7         -2.6810   -0.6240   -6.7080 ha        1 RS7      0.162000
     25 H8         -2.1900    1.7840   -6.3000 ha        1 RS7      0.151500
     26 H121        0.0270    5.7490   -4.4960 hc        1 RS7      0.089500
     27 H122        0.0740    5.4120   -2.7160 hc        1 RS7      0.089500
     28 H131       -2.4200    5.7740   -2.5860 hc        1 RS7      0.087000
     29 H132       -2.4660    6.1140   -4.3590 hc        1 RS7      0.087000
     30 H141       -0.8580    8.0290   -4.0320 hc        1 RS7      0.076500
     31 H142       -0.8160    7.6890   -2.2600 hc        1 RS7      0.076500
     32 H151       -3.3440    8.4120   -3.8990 hc        1 RS7      0.080000
     33 H152       -3.3010    8.0700   -2.1270 hc        1 RS7      0.080000
     34 H161       -1.7360   10.3220   -3.5680 hc        1 RS7      0.076500
     35 H162       -1.6960    9.9800   -1.7970 hc        1 RS7      0.076500
     36 H171       -4.2150   10.7410   -3.4340 hc        1 RS7      0.069333
     37 H172       -4.1750   10.3990   -1.6580 hc        1 RS7      0.069333
     38 H173       -3.2860   11.8300   -2.3230 hc        1 RS7      0.069333
@<TRIPOS>BOND
     1    1    2 1   
     2    1    3 1   
     3    1    4 1   
     4    4    5 1   
     5    4   20 1   
     6    6    7 1   
     7    6   11 1   
     8    6   21 1   
     9    7    8 1   
    10    7   22 1   
    11    8    9 1   
    12    8   23 1   
    13    9   10 1   
    14    9   24 1   
    15   10   11 1   
    16   10   25 1   
    17   11   12 1   
    18   12   13 1   
    19   13   14 1   
    20   14   15 1   
    21   14   26 1   
    22   14   27 1   
    23   15   16 1   
    24   15   28 1   
    25   15   29 1   
    26   16   17 1   
    27   16   30 1   
    28   16   31 1   
    29   17   18 1   
    30   17   32 1   
    31   17   33 1   
    32   18   19 1   
    33   18   34 1   
    34   18   35 1   
    35   19   36 1   
    36   19   37 1   
    37   19   38 1   
@<TRIPOS>SUBSTRUCTURE
     1 RS7         1 TEMP              0 ****  ****    0 ROOT
