@<TRIPOS>MOLECULE
molecule
   26    27     1     0     0
SMALL
bcc


@<TRIPOS>ATOM
      1 C13         -0.8860    -0.0190    -2.4920 c1         1 RSA      -0.142500
      2 C12         -0.4920     0.0010    -1.3870 c1         1 RSA      -0.145100
      3 C11          0.0000     0.0000     0.0000 c3         1 RSA       0.230900
      4 N10          1.4680     0.0000     0.0000 n7         1 RSA      -0.782200
      5 C9           1.8910     0.0000     1.4060 c3         1 RSA       0.196800
      6 C1           3.2460    -0.7240     1.5570 c3         1 RSA      -0.088400
      7 C2           4.2560     0.4370     1.4410 c3         1 RSA      -0.031100
      8 C3           3.5020     1.6660     1.9000 ca         1 RSA      -0.079300
      9 C8           2.1440     1.4140     1.8800 ca         1 RSA      -0.078300
     10 C7           1.2540     2.4040     2.2620 ca         1 RSA      -0.106000
     11 C4           3.9680     2.9060     2.3020 ca         1 RSA      -0.117000
     12 C5           3.0790     3.8920     2.6830 ca         1 RSA      -0.124000
     13 C6           1.7210     3.6410     2.6620 ca         1 RSA      -0.131000
     14 H13         -1.3280     0.3310    -3.4170 ha         1 RSA       0.164500
     15 H111        -0.3610    -0.8850     0.5100 h1         1 RSA       0.050200
     16 H112        -0.3610     0.8840     0.5110 h1         1 RSA       0.050200
     17 H10          1.8020    -0.8300    -0.4490 hn         1 RSA       0.358800
     18 H9           1.1430    -0.4740     2.0290 h1         1 RSA       0.036700
     19 H11          3.3160    -1.1820     2.5360 hc         1 RSA       0.054700
     20 H12          3.3870    -1.4230     0.7410 hc         1 RSA       0.054700
     21 H21          5.0940     0.2560     2.1030 hc         1 RSA       0.058200
     22 H22          4.5520     0.5580     0.4060 hc         1 RSA       0.058200
     23 H7           0.1880     2.2080     2.2460 ha         1 RSA       0.124000
     24 H4           5.0330     3.1030     2.3180 ha         1 RSA       0.128000
     25 H5           3.4470     4.8620     2.9970 ha         1 RSA       0.129000
     26 H6           1.0220     4.4130     2.9600 ha         1 RSA       0.129000
@<TRIPOS>BOND
     1     1     2 3
     2     1    14 1
     3     2     3 1
     4     3     4 1
     5     3    15 1
     6     3    16 1
     7     4     5 1
     8     4    17 1
     9     5     6 1
    10     5     9 1
    11     5    18 1
    12     6     7 1
    13     6    19 1
    14     6    20 1
    15     7     8 1
    16     7    21 1
    17     7    22 1
    18     8     9 ar
    19     8    11 ar
    20     9    10 ar
    21    10    13 ar
    22    10    23 1
    23    11    12 ar
    24    11    24 1
    25    12    13 ar
    26    12    25 1
    27    13    26 1
@<TRIPOS>SUBSTRUCTURE
     1 RSA         1 TEMP              0 ****  ****    0 ROOT
