@<TRIPOS>MOLECULE
molecule
   53    55     1     0     0
SMALL
bcc


@<TRIPOS>ATOM
      1 OC2          0.0000     0.0000     0.0000 o          1 RSE      -0.798500
      2 PC           1.6100     0.0000     0.0000 p5         1 RSE       1.395800
      3 OC1          2.1030     0.0000     1.3950 o          1 RSE      -0.798500
      4 OBC          2.1460     1.3130    -0.7600 os         1 RSE      -0.682800
      5 PB           2.3300     2.8550    -0.3330 p5         1 RSE       1.548500
      6 OB           3.2620     2.9420     0.8130 o          1 RSE      -0.722300
      7 SEB          0.3170     3.7210     0.2600 sh         1 RSE      -0.595200
      8 OAB          2.9270     3.6890    -1.5760 os         1 RSE      -0.678800
      9 PA           3.3300     5.2310    -1.7970 p5         1 RSE       1.227900
     10 OA2          1.9950     6.1160    -1.9620 o          1 RSE      -0.484833
     11 OA1          4.2310     5.3660    -3.1250 o          1 RSE      -0.484833
     12 OA3          4.0990     5.7120    -0.6280 o          1 RSE      -0.484833
     13 O5'          2.1460    -1.3150    -0.7590 os         1 RSE      -0.596200
     14 C5'          1.9280    -2.6400    -0.2690 c3         1 RSE       0.238400
     15 C4'          2.5670    -3.6490    -1.2260 c3         1 RSE       0.110100
     16 C3'          2.2370    -5.0920    -0.7830 c3         1 RSE       0.087100
     17 O3'          1.1430    -5.6110    -1.5430 oh         1 RSE      -0.580800
     18 C2'          3.5290    -5.8820    -1.0870 c3         1 RSE       0.092100
     19 O2'          3.2730    -6.9140    -2.0430 os         1 RSE      -0.392600
     20 CM2          2.9220    -8.1700    -1.4620 c3         1 RSE       0.134700
     21 C1'          4.4870    -4.8230    -1.6770 c3         1 RSE       0.259800
     22 O4'          4.0060    -3.5620    -1.1600 os         1 RSE      -0.392600
     23 N9           5.8590    -5.0690    -1.2260 na         1 RSE      -0.079100
     24 C4           6.7590    -5.9250    -1.8020 cc         1 RSE       0.202100
     25 N3           6.7210    -6.7470    -2.8560 nc         1 RSE      -0.620100
     26 C2           7.7650    -7.4730    -3.1900 cd         1 RSE       0.132800
     27 N2           7.6790    -8.3030    -4.2790 nz         1 RSE      -0.637600
     28 N1           8.9300    -7.4250    -2.4850 ns         1 RSE      -0.465400
     29 C6           9.0440    -6.6170    -1.4080 c          1 RSE       0.791100
     30 O6          10.0820    -6.5670    -0.7700 o          1 RSE      -0.682500
     31 C5           7.9280    -5.8300    -1.0370 cd         1 RSE      -0.403900
     32 N7           7.6890    -4.9360    -0.0460 na         1 RSE       0.095900
     33 CM7          8.6510    -4.5390     0.9840 c3         1 RSE       0.019600
     34 C8           6.4760    -4.4830    -0.1590 cc         1 RSE      -0.028600
     35 H2          -0.6170     3.5570    -0.8280 hs         1 RSE       0.353800
     36 H5           0.8640    -2.8300    -0.2010 h1         1 RSE       0.044200
     37 H6           2.3760    -2.7400     0.7130 h1         1 RSE       0.044200
     38 H7           2.2270    -3.4820    -2.2410 h1         1 RSE       0.088700
     39 H8           2.0180    -5.1210     0.2770 h1         1 RSE       0.055700
     40 H9           0.3660    -5.6220    -1.0080 ho         1 RSE       0.408000
     41 H10          3.9410    -6.2960    -0.1750 h1         1 RSE       0.054700
     42 H11          3.7380    -8.5220    -0.8430 h1         1 RSE       0.028700
     43 H12          2.7280    -8.8900    -2.2480 h1         1 RSE       0.028700
     44 H13          2.0330    -8.0500    -0.8540 h1         1 RSE       0.028700
     45 H14          4.4330    -4.8300    -2.7590 h2         1 RSE       0.109700
     46 H15          6.8440    -8.0960    -4.7920 hn         1 RSE       0.413133
     47 H16          7.6540    -9.2550    -3.9730 hn         1 RSE       0.413133
     48 H17          9.7060    -7.9910    -2.7660 hn         1 RSE       0.310500
     49 H18          9.5240    -4.1000     0.5140 h1         1 RSE       0.078033
     50 H19          8.9490    -5.4090     1.5560 h1         1 RSE       0.078033
     51 H20          8.1940    -3.8120     1.6450 h1         1 RSE       0.078033
     52 H21          6.0220    -3.7500     0.4970 h5         1 RSE       0.246000
     53 H23          8.4750    -8.1630    -4.8690 hn         1 RSE       0.413133
@<TRIPOS>BOND
     1     3     2 1
     2     6     5 2
     3    22    21 1
     4    22    15 1
     5     7     5 1
     6     2     1 1
     7     2    13 1
     8     2     4 1
     9     5     4 1
    10     5     8 1
    11    21    23 1
    12    21    18 1
    13    34    23 2
    14    34    32 1
    15    23    24 1
    16    33    32 1
    17    14    13 1
    18    14    15 1
    19    32    31 1
    20    15    16 1
    21    24    31 2
    22    24    25 1
    23    31    29 1
    24    25    26 2
    25    29    30 2
    26    29    28 1
    27    26    28 1
    28    26    27 1
    29     8     9 1
    30    18    19 1
    31    18    16 1
    32    20    19 1
    33    16    17 1
    34     9    11 1
    35     9    10 1
    36     9    12 1
    37     7    35 1
    38    14    36 1
    39    14    37 1
    40    15    38 1
    41    16    39 1
    42    17    40 1
    43    18    41 1
    44    20    42 1
    45    20    43 1
    46    20    44 1
    47    21    45 1
    48    27    46 1
    49    27    47 1
    50    28    48 1
    51    33    49 1
    52    33    50 1
    53    33    51 1
    54    34    52 1
    55    53    27 1
@<TRIPOS>SUBSTRUCTURE
     1 RSE         1 TEMP              0 ****  ****    0 ROOT
