@<TRIPOS>MOLECULE
RSE
   53    55     1     0     0
SMALL
bcc


@<TRIPOS>ATOM
      1 OC2          0.0000     0.0000     0.0000 o          1 RSE      -0.641500
      2 PC           1.6100     0.0000     0.0000 p5         1 RSE       0.970800
      3 OC1          2.1030     0.0000     1.3950 o          1 RSE      -0.641500
      4 OBC          2.1460     1.3130    -0.7600 os         1 RSE      -0.461800
      5 PB           2.3300     2.8550    -0.3330 p5         1 RSE       1.039500
      6 OB           3.2620     2.9420     0.8130 o          1 RSE      -0.549300
      7 SEB          0.3170     3.7210     0.2600 sh         1 RSE      -0.301200
      8 OAB          2.9270     3.6890    -1.5760 os         1 RSE      -0.492800
      9 PA           3.3300     5.2310    -1.7970 p5         1 RSE       0.919900
     10 OA2          1.9950     6.1160    -1.9620 o          1 RSE      -0.287167
     11 OA1          4.2310     5.3660    -3.1250 o          1 RSE      -0.287167
     12 OA3          4.0990     5.7120    -0.6280 o          1 RSE      -0.287167
     13 O5'          2.1460    -1.3150    -0.7590 os         1 RSE      -0.503200
     14 C5'          1.9280    -2.6400    -0.2690 c3         1 RSE       0.318400
     15 C4'          2.5670    -3.6490    -1.2260 c3         1 RSE       0.135100
     16 C3'          2.2370    -5.0920    -0.7830 c3         1 RSE       0.127100
     17 O3'          1.1430    -5.6110    -1.5430 oh         1 RSE      -0.564800
     18 C2'          3.5290    -5.8820    -1.0870 c3         1 RSE       0.116100
     19 O2'          3.2730    -6.9140    -2.0430 os         1 RSE      -0.373600
     20 CM2          2.9220    -8.1700    -1.4620 c3         1 RSE       0.254700
     21 C1'          4.4870    -4.8230    -1.6770 c3         1 RSE       0.162800
     22 O4'          4.0060    -3.5620    -1.1600 os         1 RSE      -0.380600
     23 N9           5.8590    -5.0690    -1.2260 na         1 RSE       0.352900
     24 C4           6.7590    -5.9250    -1.8020 cc         1 RSE       0.009100
     25 N3           6.7210    -6.7470    -2.8560 nc         1 RSE      -0.509100
     26 C2           7.7650    -7.4730    -3.1900 cd         1 RSE      -0.430200
     27 N2           7.6790    -8.3030    -4.2790 nz         1 RSE       0.372400
     28 N1           8.9300    -7.4250    -2.4850 ns         1 RSE       0.024600
     29 C6           9.0440    -6.6170    -1.4080 c          1 RSE       0.718100
     30 O6          10.0820    -6.5670    -0.7700 o          1 RSE      -0.780500
     31 C5           7.9280    -5.8300    -1.0370 cd         1 RSE      -0.667900
     32 N7           7.6890    -4.9360    -0.0460 na         1 RSE       0.732900
     33 CM7          8.6510    -4.5390     0.9840 c3         1 RSE      -0.067400
     34 C8           6.4760    -4.4830    -0.1590 cc         1 RSE      -0.479600
     35 H2          -0.6170     3.5570    -0.8280 hs         1 RSE       0.213800
     36 H5           0.8640    -2.8300    -0.2010 h1         1 RSE      -0.011300
     37 H6           2.3760    -2.7400     0.7130 h1         1 RSE      -0.011300
     38 H7           2.2270    -3.4820    -2.2410 h1         1 RSE       0.042700
     39 H8           2.0180    -5.1210     0.2770 h1         1 RSE       0.014700
     40 H9           0.3660    -5.6220    -1.0080 ho         1 RSE       0.386000
     41 H10          3.9410    -6.2960    -0.1750 h1         1 RSE       0.021700
     42 H11          3.7380    -8.5220    -0.8430 h1         1 RSE      -0.017300
     43 H12          2.7280    -8.8900    -2.2480 h1         1 RSE      -0.017300
     44 H13          2.0330    -8.0500    -0.8540 h1         1 RSE      -0.017300
     45 H14          4.4330    -4.8300    -2.7590 h2         1 RSE       0.056700
     46 H15          6.8440    -8.0960    -4.7920 hn         1 RSE       0.114800
     47 H16          7.6540    -9.2550    -3.9730 hn         1 RSE       0.114800
     48 H17          9.7060    -7.9910    -2.7660 hn         1 RSE       0.133500
     49 H18          9.5240    -4.1000     0.5140 h1         1 RSE       0.039700
     50 H19          8.9490    -5.4090     1.5560 h1         1 RSE       0.039700
     51 H20          8.1940    -3.8120     1.6450 h1         1 RSE       0.039700
     52 H21          6.0220    -3.7500     0.4970 h5         1 RSE       0.195000
     53 H23          8.4750    -8.1630    -4.8690 hn         1 RSE       0.114800
@<TRIPOS>BOND
     1     1     2 1   
     2     2     3 1   
     3     2     4 1   
     4     2    13 1   
     5     4     5 1   
     6     5     6 2   
     7     5     7 1   
     8     5     8 1   
     9     7    35 1   
    10     8     9 1   
    11     9    10 1   
    12     9    11 1   
    13     9    12 1   
    14    13    14 1   
    15    14    15 1   
    16    14    36 1   
    17    14    37 1   
    18    15    16 1   
    19    15    22 1   
    20    15    38 1   
    21    16    17 1   
    22    16    18 1   
    23    16    39 1   
    24    17    40 1   
    25    18    19 1   
    26    18    21 1   
    27    18    41 1   
    28    19    20 1   
    29    20    42 1   
    30    20    43 1   
    31    20    44 1   
    32    21    22 1   
    33    21    23 1   
    34    21    45 1   
    35    23    24 1   
    36    23    34 2   
    37    24    25 1   
    38    24    31 2   
    39    25    26 2   
    40    26    27 1   
    41    26    28 1   
    42    27    46 1   
    43    27    47 1   
    44    27    53 1   
    45    28    29 1   
    46    28    48 1   
    47    29    30 2   
    48    29    31 1   
    49    31    32 1   
    50    32    33 1   
    51    32    34 1   
    52    33    49 1   
    53    33    50 1   
    54    33    51 1   
    55    34    52 1   
@<TRIPOS>SUBSTRUCTURE
     1 RSE         1 TEMP              0 ****  ****    0 ROOT
