@<TRIPOS>MOLECULE
molecule
   19    20     1     0     0
SMALL
bcc


@<TRIPOS>ATOM
      1 C5           0.0000     0.0000     0.0000 c3         1 RSF       0.129400
      2 C6           1.5510     0.0000     0.0000 c3         1 RSF      -0.110400
      3 O1          -0.3380     0.8590     1.1070 os         1 RSF      -0.399600
      4 C4           2.3840     1.7790     3.0450 c3         1 RSF       0.108400
      5 O2           0.9680     1.8340     2.7750 os         1 RSF      -0.393600
      6 C1           0.5940     0.5830     2.1700 c3         1 RSF       0.331900
      7 C2           1.8700     0.0000     1.5120 c3         1 RSF      -0.138700
      8 C3           2.9610     1.0540     1.8020 c3         1 RSF       0.115100
      9 O3           3.1030     1.9570     0.7030 oh         1 RSF      -0.582800
     10 H15         -0.3800     0.4100    -0.9280 h1         1 RSF       0.050700
     11 H25         -0.3800    -1.0010     0.1670 h1         1 RSF       0.050700
     12 H16          1.9350    -0.8950    -0.4740 hc         1 RSF       0.072700
     13 H26          1.9350     0.8950    -0.4740 hc         1 RSF       0.072700
     14 H14          2.5770     1.2050     3.9430 h1         1 RSF       0.056200
     15 H24          2.7940     2.7780     3.1260 h1         1 RSF       0.056200
     16 H1           0.1750    -0.1010     2.8980 h2         1 RSF       0.064700
     17 H2           2.1220    -0.9830     1.8900 hc         1 RSF       0.072700
     18 H3           3.9020     0.5740     2.0410 h1         1 RSF       0.041700
     19 HO3          3.9900     2.2760     0.6720 ho         1 RSF       0.402000
@<TRIPOS>BOND
     1     1     2 1
     2     1     3 1
     3     2     7 1
     4     3     6 1
     5     4     5 1
     6     4     8 1
     7     5     6 1
     8     6     7 1
     9     7     8 1
    10     8     9 1
    11     1    10 1
    12     1    11 1
    13     2    12 1
    14     2    13 1
    15     4    14 1
    16     4    15 1
    17     6    16 1
    18     7    17 1
    19     8    18 1
    20     9    19 1
@<TRIPOS>SUBSTRUCTURE
     1 RSF         1 TEMP              0 ****  ****    0 ROOT
