@<TRIPOS>MOLECULE
RSF
   19    20     1     0     0
SMALL
bcc


@<TRIPOS>ATOM
      1 C5          0.0660    0.4950    0.1200 c3        1 RSF      0.123400
      2 C6          1.4680   -0.1060    0.0320 c3        1 RSF     -0.102400
      3 O1         -0.3720    0.4140    1.4830 os        1 RSF     -0.420600
      4 C4          2.1560    1.9550    2.6440 c3        1 RSF      0.088400
      5 O2          0.9490    1.3260    3.0730 os        1 RSF     -0.415600
      6 C1          0.7230    0.1310    2.3360 c3        1 RSF      0.317900
      7 C2          1.9720   -0.1780    1.4700 c3        1 RSF     -0.103700
      8 C3          2.9830    0.9080    1.8730 c3        1 RSF      0.115100
      9 O3          3.6010    1.4540    0.7240 oh        1 RSF     -0.587800
     10 H15         0.0580    1.5750   -0.1790 h1        1 RSF      0.051200
     11 H25        -0.6880   -0.0730   -0.4800 h1        1 RSF      0.051200
     12 H16         2.1320    0.5180   -0.6150 hc        1 RSF      0.069200
     13 H26         1.4260   -1.1330   -0.4090 hc        1 RSF      0.069200
     14 H14         1.8960    2.8240    1.9870 h1        1 RSF      0.056700
     15 H24         2.6690    2.3090    3.5730 h1        1 RSF      0.056700
     16 H1          0.3970   -0.6550    3.0640 h2        1 RSF      0.100700
     17 H2          2.3880   -1.1880    1.6980 hc        1 RSF      0.076700
     18 H3          3.7730    0.4650    2.5410 h1        1 RSF      0.045700
     19 HO3         4.1670    2.1730    1.0330 ho        1 RSF      0.408000
@<TRIPOS>BOND
     1    1    2 1   
     2    1    3 1   
     3    1   10 1   
     4    1   11 1   
     5    2    7 1   
     6    2   12 1   
     7    2   13 1   
     8    3    6 1   
     9    4    5 1   
    10    4    8 1   
    11    4   14 1   
    12    4   15 1   
    13    5    6 1   
    14    6    7 1   
    15    6   16 1   
    16    7    8 1   
    17    7   17 1   
    18    8    9 1   
    19    8   18 1   
    20    9   19 1   
@<TRIPOS>SUBSTRUCTURE
     1 RSF         1 TEMP              0 ****  ****    0 ROOT
