@<TRIPOS>MOLECULE
RSG
   19    20     1     0     0
SMALL
bcc


@<TRIPOS>ATOM
      1 C1          0.0510   -0.1200   -0.0350 c3        1 RSG      0.115100
      2 O1          1.0220   -0.4970    2.1260 os        1 RSG     -0.415600
      3 C2          1.5800   -0.0760   -0.1960 c3        1 RSG     -0.103700
      4 O2          2.8810    0.7070    1.6850 os        1 RSG     -0.420600
      5 C3          2.1160   -0.3930    1.2240 c3        1 RSG      0.317900
      6 O3         -0.5430    0.9840   -0.6890 oh        1 RSG     -0.587800
      7 C4         -0.1900   -0.0950    1.4870 c3        1 RSG      0.088400
      8 C5          2.7660    1.8100    0.7750 c3        1 RSG      0.123400
      9 C6          2.1670    1.2910   -0.5310 c3        1 RSG     -0.102400
     10 H1         -0.3520   -1.0720   -0.4790 h1        1 RSG      0.045700
     11 H2          1.9050   -0.8440   -0.9370 hc        1 RSG      0.076700
     12 H3          2.7370   -1.3170    1.3430 h2        1 RSG      0.100700
     13 HO3        -1.4880    0.9420   -0.4940 ho        1 RSG      0.408000
     14 H4         -0.9700   -0.8270    1.8110 h1        1 RSG      0.056700
     15 H4A        -0.4550    0.9370    1.8340 h1        1 RSG      0.056700
     16 H5          3.8020    2.2120    0.6460 h1        1 RSG      0.051200
     17 H5A         2.1120    2.5830    1.2540 h1        1 RSG      0.051200
     18 H6          2.9610    1.1850   -1.3110 hc        1 RSG      0.069200
     19 H6A         1.3930    1.9960   -0.9240 hc        1 RSG      0.069200
@<TRIPOS>BOND
     1    1    3 1   
     2    1    6 1   
     3    1    7 1   
     4    1   10 1   
     5    2    5 1   
     6    2    7 1   
     7    3    5 1   
     8    3    9 1   
     9    3   11 1   
    10    4    5 1   
    11    4    8 1   
    12    5   12 1   
    13    6   13 1   
    14    7   14 1   
    15    7   15 1   
    16    8    9 1   
    17    8   16 1   
    18    8   17 1   
    19    9   18 1   
    20    9   19 1   
@<TRIPOS>SUBSTRUCTURE
     1 RSG         1 TEMP              0 ****  ****    0 ROOT
