@<TRIPOS>MOLECULE
molecule
   19    20     1     0     0
SMALL
bcc


@<TRIPOS>ATOM
      1 C1           0.0000     0.0000     0.0000 c3         1 RSG       0.115100
      2 O1           0.6930    -0.0160     2.2470 os         1 RSG      -0.393600
      3 C2           1.5440     0.0000     0.0000 c3         1 RSG      -0.138700
      4 O2           2.5940     1.2470     1.7660 os         1 RSG      -0.400600
      5 C3           1.9250     0.0000     1.5020 c3         1 RSG       0.331900
      6 O3          -0.5110     1.3280    -0.1220 oh         1 RSG      -0.582800
      7 C4          -0.3200    -0.5920     1.3970 c3         1 RSG       0.108400
      8 C5           3.1490     1.7150     0.5190 c3         1 RSG       0.130400
      9 C6           2.0530     1.3640    -0.5200 c3         1 RSG      -0.110400
     10 H1          -0.3830    -0.6420    -0.7840 h1         1 RSG       0.041700
     11 H2           1.9660    -0.8400    -0.5380 hc         1 RSG       0.072700
     12 H3           2.5510    -0.8480     1.7530 h2         1 RSG       0.064700
     13 HO3         -1.3490     1.3040    -0.5530 ho         1 RSG       0.402000
     14 H4          -0.2340    -1.6710     1.3810 h1         1 RSG       0.056200
     15 H4A         -1.3070    -0.2850     1.7220 h1         1 RSG       0.056200
     16 H5           3.3110     2.7850     0.5540 h1         1 RSG       0.050700
     17 H5A          4.0690     1.1900     0.2920 h1         1 RSG       0.050700
     18 H6           1.2590     2.1020    -0.5050 hc         1 RSG       0.072700
     19 H6A          2.4800     1.2640    -1.5100 hc         1 RSG       0.072700
@<TRIPOS>BOND
     1     7     1 1
     2     1     6 1
     3     1     3 1
     4     1    10 1
     5     7     2 1
     6     2     5 1
     7     3     5 1
     8     3     9 1
     9     3    11 1
    10     5     4 1
    11     4     8 1
    12     5    12 1
    13     6    13 1
    14     7    14 1
    15     7    15 1
    16     9     8 1
    17     8    16 1
    18     8    17 1
    19     9    18 1
    20     9    19 1
@<TRIPOS>SUBSTRUCTURE
     1 RSG         1 TEMP              0 ****  ****    0 ROOT
