@<TRIPOS>MOLECULE
RSH
   23    22     1     0     0
SMALL
bcc


@<TRIPOS>ATOM
      1 O2          0.1850    0.3840   -0.1310 o         1 RSH     -0.833300
      2 C1          1.4390    0.3830    0.0340 c         1 RSH      0.895600
      3 O1          2.2920    0.5800   -0.8710 o         1 RSH     -0.833300
      4 C2          1.9460    0.1210    1.4780 c3        1 RSH      0.011100
      5 C3          2.7640   -1.1630    1.5200 c3        1 RSH     -0.118400
      6 C4          3.7380   -1.1910    2.6880 c3        1 RSH      0.159100
      7 O4          3.1480   -0.8700    3.9340 oh        1 RSH     -0.622800
      8 C5          4.4200   -2.5710    2.7850 c3        1 RSH      0.115100
      9 O5          3.4270   -3.5350    3.0970 oh        1 RSH     -0.590800
     10 C6          5.4960   -2.5410    3.8740 c3        1 RSH      0.088400
     11 O6          6.0360   -3.8530    3.9650 oh        1 RSH     -0.621800
     12 OT          0.8740    0.0250    2.4040 oh        1 RSH     -0.656800
     13 H2C1        2.5720    0.9910    1.8160 h1        1 RSH      0.042700
     14 H3C1        3.3400   -1.2450    0.5610 hc        1 RSH      0.066200
     15 H3C2        2.0730   -2.0420    1.5990 hc        1 RSH      0.066200
     16 H4          4.5490   -0.4200    2.5410 h1        1 RSH      0.048700
     17 HA          2.1930   -1.0040    3.8490 ho        1 RSH      0.436000
     18 H5          4.8900   -2.8290    1.7950 h1        1 RSH      0.041700
     19 HB          3.8950   -4.3680    3.2380 ho        1 RSH      0.400000
     20 H6C1        6.3110   -1.8220    3.5970 h1        1 RSH      0.040700
     21 H6C2        5.0320   -2.2320    4.8480 h1        1 RSH      0.040700
     22 H6          6.4980   -3.9020    4.8080 ho        1 RSH      0.394000
     23 HT          0.0540   -0.0250    1.8840 ho        1 RSH      0.429000
@<TRIPOS>BOND
     1    1    2 1   
     2    2    3 1   
     3    2    4 1   
     4    4    5 1   
     5    4   12 1   
     6    4   13 1   
     7    5    6 1   
     8    5   14 1   
     9    5   15 1   
    10    6    7 1   
    11    6    8 1   
    12    6   16 1   
    13    7   17 1   
    14    8    9 1   
    15    8   10 1   
    16    8   18 1   
    17    9   19 1   
    18   10   11 1   
    19   10   20 1   
    20   10   21 1   
    21   11   22 1   
    22   12   23 1   
@<TRIPOS>SUBSTRUCTURE
     1 RSH         1 TEMP              0 ****  ****    0 ROOT
