@<TRIPOS>MOLECULE
molecule
   23    22     1     0     0
SMALL
bcc


@<TRIPOS>ATOM
      1 O2           0.0000     0.0000     0.0000 o          1 RSH      -0.842800
      2 C1           1.2080     0.0000     0.0000 c          1 RSH       0.868600
      3 O1           1.8790     0.0000    -1.1620 o          1 RSH      -0.842800
      4 C2           1.9620     0.0000     1.3060 c3         1 RSH       0.039100
      5 C3           2.7450    -1.3070     1.4430 c3         1 RSH      -0.059400
      6 C4           3.6060    -1.2550     2.7060 c3         1 RSH       0.146100
      7 O4           2.7620    -1.1990     3.8570 oh         1 RSH      -0.570800
      8 C5           4.4830    -2.5070     2.7770 c3         1 RSH       0.138100
      9 O5           3.6580    -3.6710     2.6980 oh         1 RSH      -0.576800
     10 C6           5.2520    -2.5160     4.0990 c3         1 RSH       0.108400
     11 O6           6.1560    -3.6230     4.1170 oh         1 RSH      -0.619800
     12 OT           1.0370     0.1170     2.3900 oh         1 RSH      -0.599800
     13 H2C1         2.6490     0.8370     1.3250 h1         1 RSH       0.002700
     14 H3C1         2.0530    -2.1380     1.5120 hc         1 RSH       0.073700
     15 H3C2         3.3820    -1.4390     0.5760 hc         1 RSH       0.073700
     16 H4           4.2370    -0.3740     2.6770 h1         1 RSH       0.020700
     17 HA           3.0080    -0.4630     4.3920 ho         1 RSH       0.378000
     18 H5           5.1840    -2.5050     1.9520 h1         1 RSH       0.039700
     19 HB           4.0990    -4.3350     2.1950 ho         1 RSH       0.394000
     20 H6C1         5.8090    -1.5930     4.1990 h1         1 RSH       0.028200
     21 H6C2         4.5540    -2.6070     4.9230 h1         1 RSH       0.028200
     22 H6           6.7150    -3.5610     4.8740 ho         1 RSH       0.391000
     23 HT           0.7350     1.0090     2.4500 ho         1 RSH       0.381000
@<TRIPOS>BOND
     1     1     2 1
     2     2     3 1
     3     2     4 1
     4     4     5 1
     5     4    12 1
     6     4    13 1
     7     5     6 1
     8     5    14 1
     9     5    15 1
    10     6     7 1
    11     6     8 1
    12     6    16 1
    13     7    17 1
    14     8     9 1
    15     8    10 1
    16     8    18 1
    17     9    19 1
    18    10    11 1
    19    10    20 1
    20    10    21 1
    21    11    22 1
    22    12    23 1
@<TRIPOS>SUBSTRUCTURE
     1 RSH         1 TEMP              0 ****  ****    0 ROOT
