@<TRIPOS>MOLECULE
molecule
   34    35     1     0     0
SMALL
bcc


@<TRIPOS>ATOM
      1 N1           0.0000     0.0000     0.0000 nz         1 RSK      -0.795100
      2 C8           1.4690     0.0000     0.0000 c3         1 RSK       0.164800
      3 C9           1.9710     0.0000     1.4210 ca         1 RSK      -0.248800
      4 C14          3.0660     0.7690     1.7670 ca         1 RSK      -0.126000
      5 C13          3.5260     0.7690     3.0700 ca         1 RSK      -0.085500
      6 C12          2.8920     0.0000     4.0280 ca         1 RSK      -0.052500
      7 C11          1.7970    -0.7690     3.6820 ca         1 RSK      -0.085500
      8 C10          1.3320    -0.7650     2.3800 ca         1 RSK      -0.126000
      9 C1           1.9790    -1.2490    -0.7200 c3         1 RSK       0.164800
     10 C2           1.4770    -1.2500    -2.1420 ca         1 RSK      -0.248800
     11 C7           0.3820    -2.0190    -2.4870 ca         1 RSK      -0.126000
     12 C6          -0.0780    -2.0200    -3.7910 ca         1 RSK      -0.085500
     13 C5           0.5560    -1.2500    -4.7480 ca         1 RSK      -0.052500
     14 C4           1.6510    -0.4800    -4.4020 ca         1 RSK      -0.085500
     15 C3           2.1080    -0.4770    -3.0970 ca         1 RSK      -0.126000
     16 N2           3.4480    -1.2500    -0.7200 nz         1 RSK      -0.795100
     17 H1          -0.3340     0.3070    -0.8920 hn         1 RSK       0.472633
     18 H2          -0.3340     0.6190     0.7120 hn         1 RSK       0.472633
     19 H4           1.8310     0.8840    -0.5110 hx         1 RSK       0.127700
     20 H5           3.5640     1.3720     1.0170 ha         1 RSK       0.129750
     21 H6           4.3840     1.3720     3.3410 ha         1 RSK       0.181500
     22 H7           3.2550    -0.0010     5.0490 ha         1 RSK       0.186500
     23 H8           1.2990    -1.3700     4.4330 ha         1 RSK       0.181500
     24 H9           0.4740    -1.3680     2.1080 ha         1 RSK       0.129750
     25 H10          1.6180    -2.1340    -0.2090 hx         1 RSK       0.127700
     26 H11         -0.1150    -2.6220    -1.7370 ha         1 RSK       0.129750
     27 H12         -0.9370    -2.6230    -4.0630 ha         1 RSK       0.181500
     28 H13          0.1970    -1.2520    -5.7700 ha         1 RSK       0.186500
     29 H14          2.1480     0.1240    -5.1520 ha         1 RSK       0.181500
     30 H15          2.9670     0.1260    -2.8260 ha         1 RSK       0.129750
     31 H16          3.7810    -1.5580     0.1720 hn         1 RSK       0.472633
     32 H17          3.7810    -1.8680    -1.4330 hn         1 RSK       0.472633
     33 H131        -0.3340    -0.9280     0.1720 hn         1 RSK       0.472633
     34 H23          3.7820    -0.3100    -0.8080 hn         1 RSK       0.472633
@<TRIPOS>BOND
     1     6     7 ar
     2     6     5 ar
     3     7     8 ar
     4     5     4 ar
     5     8     3 ar
     6     4     3 ar
     7    16     9 1
     8     3     2 1
     9     9     2 1
    10     9    10 1
    11     2     1 1
    12    10    11 ar
    13    10    15 ar
    14    11    12 ar
    15    15    14 ar
    16    12    13 ar
    17    14    13 ar
    18     1    17 1
    19     1    18 1
    20     2    19 1
    21     4    20 1
    22     5    21 1
    23     6    22 1
    24     7    23 1
    25     8    24 1
    26     9    25 1
    27    11    26 1
    28    12    27 1
    29    13    28 1
    30    14    29 1
    31    15    30 1
    32    16    31 1
    33    16    32 1
    34    33     1 1
    35    34    16 1
@<TRIPOS>SUBSTRUCTURE
     1 RSK         1 TEMP              0 ****  ****    0 ROOT
