@<TRIPOS>MOLECULE
RSM
   30    29     1     0     0
SMALL
bcc


@<TRIPOS>ATOM
      1 C2           0.0000     0.0000     0.0000 c3         1 RSM      -0.064100
      2 C            1.5070     0.0000     0.0000 c          1 RSM       0.577100
      3 O            2.1130     0.0000     1.0510 o          1 RSM      -0.600100
      4 N            2.1820     0.0010    -1.1670 ns         1 RSM      -0.197900
      5 CA           3.6470     0.0010    -1.1660 c3         1 RSM      -0.031300
      6 CB           4.1560     1.2500    -0.4450 c3         1 RSM      -0.027400
      7 CG           3.7510     2.4960    -1.2350 c3         1 RSM       0.094900
      8 SD           4.3550     3.9770    -0.3790 s4         1 RSM      -0.062400
      9 OD1          3.7250     4.0820     0.8900 o          1 RSM      -0.439200
     10 CE           3.7870     5.3270    -1.4490 c3         1 RSM       0.125200
     11 C3           4.1490    -1.2300    -0.4560 c          1 RSM       0.551100
     12 O3           3.4200    -1.8300     0.3060 o          1 RSM      -0.600100
     13 N2           5.4080    -1.6620    -0.6660 ns         1 RSM      -0.202900
     14 C1           5.8960    -2.8590     0.0250 c3         1 RSM       0.088300
     15 H2          -0.3610    -0.8200    -0.6090 hc         1 RSM       0.021033
     16 H2A         -0.3610    -0.1180     1.0150 hc         1 RSM       0.021033
     17 H2B         -0.3610     0.9380    -0.4050 hc         1 RSM       0.021033
     18 HN           1.6820    -0.0240    -2.0330 hn         1 RSM       0.167500
     19 HA           4.0080     0.0020    -2.1880 h1         1 RSM       0.025700
     20 HB           3.7230     1.2950     0.5480 hc         1 RSM       0.056700
     21 HBA          5.2350     1.2070    -0.3660 hc         1 RSM       0.056700
     22 HG           4.1830     2.4510    -2.2270 h1         1 RSM       0.045200
     23 HGA          2.6710     2.5400    -1.3130 h1         1 RSM       0.045200
     24 HE           4.0770     6.2770    -1.0150 h1         1 RSM       0.044700
     25 HEA          2.7090     5.2860    -1.5400 h1         1 RSM       0.044700
     26 HEB          4.2370     5.2250    -2.4290 h1         1 RSM       0.044700
     27 HN2          5.9980    -1.1850    -1.3180 hn         1 RSM       0.165500
     28 H1           5.2650    -3.7030    -0.2250 h1         1 RSM       0.009700
     29 H1A          5.8720    -2.6930     1.0950 h1         1 RSM       0.009700
     30 H1B          6.9140    -3.0640    -0.2850 h1         1 RSM       0.009700
@<TRIPOS>BOND
     1     1     2 1   
     2     1    15 1   
     3     1    16 1   
     4     1    17 1   
     5     2     3 2   
     6     2     4 1   
     7     4     5 1   
     8     4    18 1   
     9     5     6 1   
    10     5    11 1   
    11     5    19 1   
    12     6     7 1   
    13     6    20 1   
    14     6    21 1   
    15     7     8 1   
    16     7    22 1   
    17     7    23 1   
    18     8     9 2   
    19     8    10 1   
    20    10    24 1   
    21    10    25 1   
    22    10    26 1   
    23    11    12 2   
    24    11    13 1   
    25    13    14 1   
    26    13    27 1   
    27    14    28 1   
    28    14    29 1   
    29    14    30 1   
@<TRIPOS>SUBSTRUCTURE
     1 RSM         1 TEMP              0 ****  ****    0 ROOT
