@<TRIPOS>MOLECULE
molecule
   17    18     1     0     0
SMALL
bcc


@<TRIPOS>ATOM
      1 C1           0.0000     0.0000     0.0000 ca         1 RSO      -0.124000
      2 C2           1.3820     0.0000     0.0000 ca         1 RSO      -0.129000
      3 C3           2.0740     0.0000     1.1970 ca         1 RSO      -0.110500
      4 C4           1.3830     0.0010     2.3940 ca         1 RSO      -0.081300
      5 C5           0.0000    -0.0040     2.3940 ca         1 RSO      -0.110500
      6 C6          -0.6900     0.0010     1.1970 ca         1 RSO      -0.129000
      7 C12          2.1370     0.0010     3.6990 cx         1 RSO       0.086400
      8 C13          2.3380    -1.3390     4.4070 cx         1 RSO       0.044400
      9 O14          1.4190    -0.3540     4.8830 op         1 RSO      -0.382600
     10 HC1         -0.5420     0.0020    -0.9380 ha         1 RSO       0.130000
     11 HC2          1.9240    -0.0010    -0.9380 ha         1 RSO       0.131500
     12 HC3          3.1580     0.0020     1.1970 ha         1 RSO       0.138500
     13 HC5         -0.5410    -0.0030     3.3320 ha         1 RSO       0.138500
     14 HC6         -1.7740    -0.0010     1.1980 ha         1 RSO       0.131500
     15 H12          2.9340     0.7190     3.8490 h1         1 RSO       0.098700
     16 H131         1.8950    -2.1990     3.9200 h1         1 RSO       0.083200
     17 H132         3.2560    -1.4380     4.9740 h1         1 RSO       0.083200
@<TRIPOS>BOND
     1     1     2 ar
     2     1     6 ar
     3     1    10 1
     4     2     3 ar
     5     2    11 1
     6     3     4 ar
     7     3    12 1
     8     4     5 ar
     9     4     7 1
    10     5     6 ar
    11     5    13 1
    12     6    14 1
    13     7     8 1
    14     7     9 1
    15     7    15 1
    16     8     9 1
    17     8    16 1
    18     8    17 1
@<TRIPOS>SUBSTRUCTURE
     1 RSO         1 TEMP              0 ****  ****    0 ROOT
