@<TRIPOS>MOLECULE
RSS
   68    70     1     0     0
SMALL
bcc


@<TRIPOS>ATOM
      1 C1         -3.2150   -0.8580   -1.8610 c         1 RSS      0.633100
      2 O1         -4.3020   -1.5860   -1.4920 oh        1 RSS     -0.552100
      3 O2         -3.4110    0.3610   -1.8540 o         1 RSS     -0.529000
      4 C2         -1.9460   -1.5720   -2.2230 c3        1 RSS     -0.183400
      5 C3         -0.8070   -0.6170   -2.5590 c3        1 RSS     -0.108700
      6 C4         -1.0170   -0.0650   -3.9670 c         1 RSS      0.656100
      7 O3         -0.4710   -0.5500   -4.9840 o         1 RSS     -0.644100
      8 N2         -1.7980    1.0680   -4.1120 n         1 RSS     -0.578900
      9 C5         -2.3320    1.4670   -5.3850 c3        1 RSS      0.055700
     10 C6         -1.3010    1.4780   -6.5240 c         1 RSS      0.549100
     11 O4         -1.5300    1.1470   -7.6760 o         1 RSS     -0.422100
     12 N3          0.0750    1.9960   -6.1980 n4        1 RSS     -0.672800
     13 C7          1.0170    1.9700   -7.3560 c3        1 RSS      0.101800
     14 C8          2.2220    2.8840   -7.1820 c3        1 RSS     -0.108400
     15 C9          1.8740    4.3530   -7.3270 c3        1 RSS     -0.099400
     16 C10         1.8370    5.0850   -5.9990 c3        1 RSS     -0.086400
     17 C11         1.0670    6.3870   -6.1010 c3        1 RSS     -0.100400
     18 C12         0.2130    6.6920   -4.8720 c3        1 RSS      0.032300
     19 N4         -0.7750    5.6980   -4.5480 na        1 RSS     -0.056400
     20 C13         0.5400   -1.3230   -2.4620 c3        1 RSS     -0.083400
     21 C14         1.6840   -0.3750   -2.1290 c3        1 RSS     -0.066700
     22 C15         2.9460   -1.1760   -1.8720 c3        1 RSS     -0.095600
     23 C16         1.9220    0.6310   -3.2350 c3        1 RSS     -0.095600
     24 C17        -3.0200    2.8520   -5.3460 c3        1 RSS     -0.017200
     25 C18        -2.1860    3.9020   -4.7570 cc        1 RSS     -0.198400
     26 C19        -1.4030    4.8370   -5.4470 cd        1 RSS     -0.131100
     27 C20        -2.0640    4.2080   -3.3470 ca        1 RSS     -0.095800
     28 C21        -1.1580    5.3290   -3.2490 ca        1 RSS     -0.048200
     29 C22        -2.6390    3.6860   -2.1820 ca        1 RSS     -0.104000
     30 C23        -0.8220    5.8830   -2.0010 ca        1 RSS     -0.133000
     31 C24        -2.3010    4.2460   -0.9610 ca        1 RSS     -0.131000
     32 C25        -1.4010    5.3260   -0.8730 ca        1 RSS     -0.100000
     33 H21        -1.6460   -2.2070   -1.3430 hc        1 RSS      0.097700
     34 H22A       -2.1430   -2.2630   -3.0860 hc        1 RSS      0.097700
     35 H3         -0.8270    0.2340   -1.8170 hc        1 RSS      0.097700
     36 HN2        -4.0930   -2.5320   -1.4890 ho        1 RSS      0.439000
     37 H5         -3.1000    0.7010   -5.7330 h1        1 RSS      0.111700
     38 HN3        -0.0300    2.9610   -5.8410 hn        1 RSS      0.472800
     39 H71         0.4440    2.2660   -8.2830 hx        1 RSS      0.111700
     40 H72         1.3540    0.9010   -7.4860 hx        1 RSS      0.111700
     41 H81         2.7350    2.6920   -6.2030 hc        1 RSS      0.082200
     42 H82         2.9490    2.5920   -7.9910 hc        1 RSS      0.082200
     43 H91         0.8870    4.4580   -7.8530 hc        1 RSS      0.060700
     44 H92         2.6380    4.8470   -7.9870 hc        1 RSS      0.060700
     45 H101        1.3910    4.4200   -5.2130 hc        1 RSS      0.045200
     46 H102        2.8880    5.2950   -5.6640 hc        1 RSS      0.045200
     47 H111        1.7880    7.2410   -6.2170 hc        1 RSS      0.066200
     48 H112        0.4160    6.3920   -7.0160 hc        1 RSS      0.066200
     49 H121       -0.3190    7.6750   -5.0460 h1        1 RSS      0.074200
     50 H122        0.8860    6.8150   -3.9740 h1        1 RSS      0.074200
     51 H131        0.4860   -2.1000   -1.6530 hc        1 RSS      0.070700
     52 H132        0.7590   -1.8570   -3.4250 hc        1 RSS      0.070700
     53 H14         1.4240    0.1870   -1.1870 hc        1 RSS      0.056700
     54 H151        3.2370   -1.7540   -2.7820 hc        1 RSS      0.037867
     55 H152        2.7880   -1.8940   -1.0310 hc        1 RSS      0.037867
     56 H153        3.7870   -0.4940   -1.5990 hc        1 RSS      0.037867
     57 H161        1.0480    1.3250   -3.3200 hc        1 RSS      0.037867
     58 H162        2.0610    0.1100   -4.2130 hc        1 RSS      0.037867
     59 H163        2.8340    1.2370   -3.0150 hc        1 RSS      0.037867
     60 H171       -3.3200    3.1140   -6.3960 hc        1 RSS      0.091200
     61 H172       -3.9660    2.7430   -4.7420 hc        1 RSS      0.091200
     62 H19        -1.2990    4.9870   -6.5250 h4        1 RSS      0.168000
     63 H22        -3.3670    2.8600   -2.2320 ha        1 RSS      0.153000
     64 H23        -0.1370    6.7380   -1.9240 ha        1 RSS      0.145000
     65 H24        -2.7520    3.8510   -0.0370 ha        1 RSS      0.150000
     66 H25        -1.1630    5.7420    0.1190 ha        1 RSS      0.148000
     67 H221       -2.2320    1.4750   -3.3040 hn        1 RSS      0.372500
     68 H32         0.4690    1.4090   -5.4450 hn        1 RSS      0.472800
@<TRIPOS>BOND
     1    1    2 1   
     2    1    3 2   
     3    1    4 1   
     4    2   36 1   
     5    4    5 1   
     6    4   33 1   
     7    4   34 1   
     8    5    6 1   
     9    5   20 1   
    10    5   35 1   
    11    6    7 2   
    12    6    8 1   
    13    8    9 1   
    14    8   67 1   
    15    9   10 1   
    16    9   24 1   
    17    9   37 1   
    18   10   11 2   
    19   10   12 1   
    20   12   13 1   
    21   12   38 1   
    22   12   68 1   
    23   13   14 1   
    24   13   39 1   
    25   13   40 1   
    26   14   15 1   
    27   14   41 1   
    28   14   42 1   
    29   15   16 1   
    30   15   43 1   
    31   15   44 1   
    32   16   17 1   
    33   16   45 1   
    34   16   46 1   
    35   17   18 1   
    36   17   47 1   
    37   17   48 1   
    38   18   19 1   
    39   18   49 1   
    40   18   50 1   
    41   19   26 1   
    42   19   28 1   
    43   20   21 1   
    44   20   51 1   
    45   20   52 1   
    46   21   22 1   
    47   21   23 1   
    48   21   53 1   
    49   22   54 1   
    50   22   55 1   
    51   22   56 1   
    52   23   57 1   
    53   23   58 1   
    54   23   59 1   
    55   24   25 1   
    56   24   60 1   
    57   24   61 1   
    58   25   26 2   
    59   25   27 1   
    60   26   62 1   
    61   27   28 ar  
    62   27   29 ar  
    63   28   30 ar  
    64   29   31 ar  
    65   29   63 1   
    66   30   32 ar  
    67   30   64 1   
    68   31   32 ar  
    69   31   65 1   
    70   32   66 1   
@<TRIPOS>SUBSTRUCTURE
     1 RSS         1 TEMP              0 ****  ****    0 ROOT
