@<TRIPOS>MOLECULE
RSV
   26    28     1     0     0
SMALL
bcc


@<TRIPOS>ATOM
      1 C4           0.0000     0.0000     0.0000 ca         1 RSV       0.379600
      2 C5           1.4170     0.0000     0.0000 ca         1 RSV      -0.148300
      3 C6           2.1120     0.0000     1.2170 ca         1 RSV      -0.081000
      4 C7           2.1330     0.0000     3.6970 cc         1 RSV      -0.058000
      5 C8           1.4820    -0.0070     4.9300 cc         1 RSV      -0.121000
      6 C10          3.4760     0.0010     3.7760 cd         1 RSV       0.001900
      7 N12         -0.6660    -0.0060    -1.1600 nb         1 RSV      -0.577000
      8 C13         -0.0310    -0.0060    -2.3130 ca         1 RSV       0.503200
      9 C15          2.1030     0.0010    -1.2320 ca         1 RSV      -0.055000
     10 C14          1.3690    -0.0000    -2.3800 ca         1 RSV      -0.221300
     11 N16         -0.7650    -0.0120    -3.4910 nv         1 RSV      -0.663500
     12 C3          -0.6900    -0.0010     1.2260 ca         1 RSV      -0.137300
     13 C2           0.0010     0.0000     2.3960 ca         1 RSV      -0.092000
     14 C1           1.4040    -0.0010     2.4060 ca         1 RSV      -0.012000
     15 C11          2.2880    -0.0110     5.9890 cd         1 RSV       0.008900
     16 S9           3.9670    -0.0070     5.4650 ss         1 RSV      -0.276800
     17 H6           3.1870    -0.1340     1.2270 ha         1 RSV       0.113000
     18 H8           0.4030    -0.0080     5.0190 ha         1 RSV       0.127000
     19 H10          4.1520     0.0060     2.9300 h4         1 RSV       0.154000
     20 H15          3.1860     0.0060    -1.2650 ha         1 RSV       0.109000
     21 H14          1.8670    -0.0000    -3.3420 ha         1 RSV       0.116000
     22 HN16        -1.0450     0.8520    -3.9100 hn         1 RSV       0.276800
     23 HN1A        -1.0380    -0.8810    -3.9050 hn         1 RSV       0.276800
     24 H3          -1.7740    -0.0000     1.2370 ha         1 RSV       0.118000
     25 H2          -0.5400    -0.0010     3.3350 ha         1 RSV       0.110000
     26 H11          1.9590    -0.0160     7.0210 h4         1 RSV       0.148000
@<TRIPOS>BOND
     1     1     2 ar  
     2     1     7 ar  
     3     1    12 ar  
     4     2     3 ar  
     5     2     9 ar  
     6     3    14 ar  
     7     3    17 1   
     8     4     5 1   
     9     4     6 2   
    10     4    14 1   
    11     5    15 2   
    12     5    18 1   
    13     6    16 1   
    14     6    19 1   
    15     7     8 ar  
    16     8    10 ar  
    17     8    11 1   
    18     9    10 ar  
    19     9    20 1   
    20    10    21 1   
    21    11    22 1   
    22    11    23 1   
    23    12    13 ar  
    24    12    24 1   
    25    13    14 ar  
    26    13    25 1   
    27    15    16 1   
    28    15    26 1   
@<TRIPOS>SUBSTRUCTURE
     1 RSV         1 TEMP              0 ****  ****    0 ROOT
