@<TRIPOS>MOLECULE
molecule
   30    31     1     0     0
SMALL
bcc


@<TRIPOS>ATOM
      1 O1           0.0000     0.0000     0.0000 o          1 RSX      -0.956000
      2 P1           1.4800     0.0000     0.0000 p5         1 RSX       1.144200
      3 O3           2.0150     0.0000     1.5190 o          1 RSX      -0.956000
      4 O2           2.0170    -1.3130    -0.7580 o          1 RSX      -0.956000
      5 C3           2.0870     1.4890    -0.8580 c3         1 RSX      -0.355400
      6 P2           1.2910     1.6370    -2.4910 p5         1 RSX       1.144200
      7 O5           1.7260     0.3940    -3.4170 o          1 RSX      -0.956000
      8 O4          -0.1810     1.6370    -2.3230 o          1 RSX      -0.956000
      9 O6           1.7500     3.0130    -3.1900 o          1 RSX      -0.956000
     10 C4           3.6210     1.4170    -1.0220 c3         1 RSX       0.019600
     11 C5           4.0860     2.8910    -0.8320 c3         1 RSX       0.138500
     12 C2           1.7950     2.7440    -0.0110 c3         1 RSX       0.024600
     13 C1           3.1620     3.3680     0.3040 c3         1 RSX      -0.060700
     14 C9           3.0950     4.8770     0.4090 c3         1 RSX      -0.061400
     15 C8           2.7800     5.5050    -0.9490 c3         1 RSX      -0.068400
     16 C7           3.8510     5.0500    -1.9460 c3         1 RSX       0.188800
     17 N1           3.7750     3.5930    -2.0820 n7         1 RSX      -0.651200
     18 H4           3.8800     1.0630    -2.0120 hc         1 RSX       0.025700
     19 H4A          4.0540     0.7820    -0.2580 hc         1 RSX       0.025700
     20 H5           5.1350     2.9590    -0.5670 h1         1 RSX      -0.083300
     21 H2           1.2940     2.4650     0.9080 hc         1 RSX       0.021700
     22 H2A          1.1890     3.4420    -0.5770 hc         1 RSX       0.021700
     23 H1           3.5230     2.9670     1.2430 hc         1 RSX       0.020700
     24 H9           4.0500     5.2500     0.7600 hc         1 RSX      -0.025800
     25 H9A          2.3200     5.1490     1.1150 hc         1 RSX      -0.025800
     26 H8           2.7970     6.5840    -0.8640 hc         1 RSX       0.030700
     27 H8A          1.8050     5.1740    -1.2860 hc         1 RSX       0.030700
     28 H7           4.8310     5.3290    -1.5790 h1         1 RSX      -0.045300
     29 H7A          3.6720     5.5140    -2.9090 h1         1 RSX      -0.045300
     30 HN1          4.4040     3.2920    -2.8000 hn         1 RSX       0.321800
@<TRIPOS>BOND
     1     1     2 1
     2     5     2 1
     3     2     4 1
     4     2     3 1
     5     6     5 1
     6    10     5 1
     7     5    12 1
     8     8     6 1
     9     9     6 1
    10     6     7 1
    11    10    11 1
    12    10    18 1
    13    10    19 1
    14    17    11 1
    15    11    13 1
    16    11    20 1
    17    13    12 1
    18    12    21 1
    19    12    22 1
    20    13    14 1
    21    13    23 1
    22    15    14 1
    23    14    24 1
    24    14    25 1
    25    16    15 1
    26    15    26 1
    27    15    27 1
    28    17    16 1
    29    16    28 1
    30    16    29 1
    31    17    30 1
@<TRIPOS>SUBSTRUCTURE
     1 RSX         1 TEMP              0 ****  ****    0 ROOT
