@<TRIPOS>MOLECULE
RT3
   50    52     1     0     0
SMALL
bcc


@<TRIPOS>ATOM
      1 O30          0.0000     0.0000     0.0000 o          1 RT3      -0.497300
      2 S23          1.4210     0.0000     0.0000 sy         1 RT3       0.937200
      3 O26          2.1970     0.0000     1.1900 o          1 RT3      -0.497300
      4 N29          1.8890    -1.3320    -0.8640 nz         1 RT3      -0.131500
      5 C19          1.9180     1.4190    -0.9180 ca         1 RT3      -0.252500
      6 C20          1.0600     1.9740    -1.8480 ca         1 RT3       0.038000
      7 C21          1.4470     3.0870    -2.5700 ca         1 RT3      -0.125600
      8 Cl22         0.3690     3.7850    -3.7390 cl         1 RT3       0.051600
      9 C18          3.1650     1.9780    -0.7030 ca         1 RT3       0.039000
     10 C17          3.5580     3.0910    -1.4200 ca         1 RT3      -0.135000
     11 C16          2.7020     3.6480    -2.3600 ca         1 RT3       0.026600
     12 N15          3.0970     4.7760    -3.0890 ns         1 RT3      -0.025100
     13 C14          4.4060     5.0320    -3.2760 c          1 RT3       0.588100
     14 O29          5.2400     4.2330    -2.9020 o          1 RT3      -0.592100
     15 C13          4.8360     6.3110    -3.9470 c3         1 RT3       0.002700
     16 S12          6.6430     6.3620    -4.0500 ss         1 RT3      -0.296700
     17 C11          6.8610     7.9150    -4.8520 c          1 RT3       0.610700
     18 O28          5.8910     8.5840    -5.1530 o          1 RT3      -0.644100
     19 N2           8.1010     8.3610    -5.1340 n          1 RT3       0.083000
     20 C1           9.2750     7.5200    -4.8600 c3         1 RT3       0.010000
     21 C3           8.2910     9.6300    -5.6950 ca         1 RT3      -0.103400
     22 C7           7.1970    10.3100    -6.2170 ca         1 RT3      -0.148000
     23 C4           9.5510    10.2080    -5.7330 ca         1 RT3      -0.102300
     24 C5          10.7590     9.4970    -5.1850 c3         1 RT3       0.034900
     25 C6          10.3400     8.4050    -4.1980 c3         1 RT3      -0.038400
     26 C10          9.7080    11.4670    -6.2890 ca         1 RT3      -0.087000
     27 C9           8.6200    12.1410    -6.8070 ca         1 RT3      -0.088300
     28 C27          8.8010    13.5100    -7.4100 c3         1 RT3       0.063200
     29 C8           7.3640    11.5630    -6.7720 ca         1 RT3      -0.083000
     30 H129         1.4230    -1.3360    -1.7490 hn         1 RT3       0.313133
     31 H229         2.8790    -1.3060    -1.0070 hn         1 RT3       0.313133
     32 H20          0.0790     1.5420    -2.0050 ha         1 RT3       0.133000
     33 H18          3.8330     1.5430     0.0300 ha         1 RT3       0.128000
     34 H17          4.5360     3.5260    -1.2520 ha         1 RT3       0.183000
     35 HN15         2.4080     5.4130    -3.4380 hn         1 RT3       0.195500
     36 H113         4.4170     6.3530    -4.9450 h1         1 RT3       0.072700
     37 H213         4.4830     7.1570    -3.3710 h1         1 RT3       0.072700
     38 H11          9.6640     7.1380    -5.7970 h1         1 RT3       0.043700
     39 H21          8.9940     6.7300    -4.1750 h1         1 RT3       0.043700
     40 H7           6.2140     9.8570    -6.1900 ha         1 RT3       0.183000
     41 H15         11.3920    10.2140    -4.6750 hc         1 RT3       0.027700
     42 H25         11.3090     9.0470    -6.0030 hc         1 RT3       0.027700
     43 H16          9.9120     8.8710    -3.3190 hc         1 RT3       0.030700
     44 H26         11.2040     7.7960    -3.9610 hc         1 RT3       0.030700
     45 H10         10.6900    11.9240    -6.3180 ha         1 RT3       0.112000
     46 H127         9.6590    13.5030    -8.0720 hc         1 RT3       0.009700
     47 H227         7.9150    13.7780    -7.9720 hc         1 RT3       0.009700
     48 H327         8.9610    14.2350    -6.6210 hc         1 RT3       0.009700
     49 H8           6.5120    12.0940    -7.1790 ha         1 RT3       0.110000
     50 H293         1.6550    -2.1600    -0.3520 hn         1 RT3       0.313133
@<TRIPOS>BOND
     1     1     2 2   
     2     2     3 2   
     3     2     4 1   
     4     2     5 1   
     5     4    30 1   
     6     4    31 1   
     7     4    50 1   
     8     5     6 ar  
     9     5     9 ar  
    10     6     7 ar  
    11     6    32 1   
    12     7     8 1   
    13     7    11 ar  
    14     9    10 ar  
    15     9    33 1   
    16    10    11 ar  
    17    10    34 1   
    18    11    12 1   
    19    12    13 1   
    20    12    35 1   
    21    13    14 2   
    22    13    15 1   
    23    15    16 1   
    24    15    36 1   
    25    15    37 1   
    26    16    17 1   
    27    17    18 2   
    28    17    19 1   
    29    19    20 1   
    30    19    21 1   
    31    20    25 1   
    32    20    38 1   
    33    20    39 1   
    34    21    22 ar  
    35    21    23 ar  
    36    22    29 ar  
    37    22    40 1   
    38    23    24 1   
    39    23    26 ar  
    40    24    25 1   
    41    24    41 1   
    42    24    42 1   
    43    25    43 1   
    44    25    44 1   
    45    26    27 ar  
    46    26    45 1   
    47    27    28 1   
    48    27    29 ar  
    49    28    46 1   
    50    28    47 1   
    51    28    48 1   
    52    29    49 1   
@<TRIPOS>SUBSTRUCTURE
     1 RT3         1 TEMP              0 ****  ****    0 ROOT
