@<TRIPOS>MOLECULE
RT7
   47    49     1     0     0
SMALL
bcc


@<TRIPOS>ATOM
      1 Cl30         0.0000     0.0000     0.0000 cl         1 RT7      -0.005400
      2 C4           1.7360     0.0000     0.0000 ca         1 RT7      -0.050600
      3 C3           2.4270     0.0000     1.1990 ca         1 RT7      -0.065000
      4 C2           3.8080     0.0010     1.1980 ca         1 RT7      -0.101600
      5 Cl29         4.6780     0.0010     2.7010 cl         1 RT7       0.109600
      6 C5           2.4260    -0.0050    -1.1980 ca         1 RT7      -0.066000
      7 C6           3.8120    -0.0040    -1.2070 ca         1 RT7      -0.100300
      8 C10          4.5310    -0.0150    -2.5310 c3         1 RT7       0.038900
      9 C9           5.9640     0.4900    -2.3660 c3         1 RT7      -0.041400
     10 C8           6.6350    -0.2900    -1.2270 c3         1 RT7       0.028000
     11 N7           5.9070     0.0100     0.0130 n          1 RT7       0.056000
     12 C1           4.5040     0.0040    -0.0080 ca         1 RT7      -0.052400
     13 C11          6.5740     0.2850     1.1510 c          1 RT7       0.507700
     14 O22          6.1250     1.0980     1.9380 o          1 RT7      -0.564100
     15 S12          8.0970    -0.5300     1.4990 ss         1 RT7      -0.289700
     16 C13          8.4980     0.2210     3.0950 c3         1 RT7       0.005700
     17 C14          9.8010    -0.3420     3.6030 c          1 RT7       0.588100
     18 O23         10.3990    -1.1700     2.9490 o          1 RT7      -0.591100
     19 N15         10.3010     0.0750     4.7830 ns         1 RT7      -0.041100
     20 C16         11.5660    -0.3570     5.1980 ca         1 RT7       0.028600
     21 C17         11.8200    -0.5710     6.5470 ca         1 RT7      -0.117600
     22 Cl24        10.5690    -0.3030     7.7210 cl         1 RT7       0.053600
     23 C18         13.0710    -0.9970     6.9540 ca         1 RT7       0.035000
     24 C19         14.0670    -1.2120     6.0190 ca         1 RT7      -0.246500
     25 S25         15.6600    -1.7560     6.5410 sy         1 RT7       0.936200
     26 N28         15.6370    -3.4110     6.5360 nz         1 RT7      -0.131500
     27 O27         16.5710    -1.3620     5.5240 o          1 RT7      -0.496300
     28 O26         15.7940    -1.3610     7.9000 o          1 RT7      -0.496300
     29 C20         13.8160    -1.0000     4.6760 ca         1 RT7       0.035000
     30 C21         12.5670    -0.5780     4.2620 ca         1 RT7      -0.115000
     31 H3           1.8860    -0.0440     2.1360 ha         1 RT7       0.126000
     32 H5           1.8810    -0.0100    -2.1350 ha         1 RT7       0.122000
     33 H110         4.0050     0.6270    -3.2270 hc         1 RT7       0.029700
     34 H210         4.5520    -1.0270    -2.9160 hc         1 RT7       0.029700
     35 H19          5.9500     1.5450    -2.1230 hc         1 RT7       0.031200
     36 H29          6.5120     0.3300    -3.2860 hc         1 RT7       0.031200
     37 H18          7.6610     0.0440    -1.1260 h1         1 RT7       0.039200
     38 H28          6.5630    -1.3510    -1.4330 h1         1 RT7       0.039200
     39 H113         7.7090     0.0030     3.8050 h1         1 RT7       0.068700
     40 H213         8.5900     1.2940     2.9770 h1         1 RT7       0.068700
     41 HN15         9.7890     0.7320     5.3390 hn         1 RT7       0.196500
     42 H18A        13.2710    -1.1640     8.0060 ha         1 RT7       0.134000
     43 H128        15.4390    -3.7390     5.6110 hn         1 RT7       0.313800
     44 H228        14.9300    -3.7370     7.1640 hn         1 RT7       0.313800
     45 H20         14.5980    -1.1710     3.9460 ha         1 RT7       0.128000
     46 H21         12.3720    -0.4130     3.2090 ha         1 RT7       0.167000
     47 H283        16.5240    -3.7580     6.8440 hn         1 RT7       0.313800
@<TRIPOS>BOND
     1     1     2 1   
     2     2     3 ar  
     3     2     6 ar  
     4     3     4 ar  
     5     3    31 1   
     6     4     5 1   
     7     4    12 ar  
     8     6     7 ar  
     9     6    32 1   
    10     7     8 1   
    11     7    12 ar  
    12     8     9 1   
    13     8    33 1   
    14     8    34 1   
    15     9    10 1   
    16     9    35 1   
    17     9    36 1   
    18    10    11 1   
    19    10    37 1   
    20    10    38 1   
    21    11    12 1   
    22    11    13 1   
    23    13    14 2   
    24    13    15 1   
    25    15    16 1   
    26    16    17 1   
    27    16    39 1   
    28    16    40 1   
    29    17    18 2   
    30    17    19 1   
    31    19    20 1   
    32    19    41 1   
    33    20    21 ar  
    34    20    30 ar  
    35    21    22 1   
    36    21    23 ar  
    37    23    24 ar  
    38    23    42 1   
    39    24    25 1   
    40    24    29 ar  
    41    25    26 1   
    42    25    27 2   
    43    25    28 2   
    44    26    43 1   
    45    26    44 1   
    46    26    47 1   
    47    29    30 ar  
    48    29    45 1   
    49    30    46 1   
@<TRIPOS>SUBSTRUCTURE
     1 RT7         1 TEMP              0 ****  ****    0 ROOT
