@<TRIPOS>MOLECULE
molecule
   47    49     1     0     0
SMALL
bcc


@<TRIPOS>ATOM
      1 Cl30         0.0000     0.0000     0.0000 cl         1 RT7      -0.088400
      2 C4           1.7360     0.0000     0.0000 ca         1 RT7       0.011400
      3 C3           2.4270     0.0000     1.1990 ca         1 RT7      -0.088000
      4 C2           3.8080     0.0010     1.1980 ca         1 RT7      -0.007600
      5 Cl29         4.6780     0.0010     2.7010 cl         1 RT7      -0.041400
      6 C5           2.4260    -0.0050    -1.1980 ca         1 RT7      -0.090000
      7 C6           3.8120    -0.0040    -1.2070 ca         1 RT7      -0.101300
      8 C10          4.5310    -0.0150    -2.5310 c3         1 RT7      -0.030100
      9 C9           5.9640     0.4900    -2.3660 c3         1 RT7      -0.100400
     10 C8           6.6350    -0.2900    -1.2270 c3         1 RT7       0.103000
     11 N7           5.9070     0.0100     0.0130 n          1 RT7      -0.364000
     12 C1           4.5040     0.0040    -0.0080 ca         1 RT7       0.092600
     13 C11          6.5740     0.2850     1.1510 c          1 RT7       0.613700
     14 O22          6.1250     1.0980     1.9380 o          1 RT7      -0.520100
     15 S12          8.0970    -0.5300     1.4990 ss         1 RT7      -0.192700
     16 C13          8.4980     0.2210     3.0950 c3         1 RT7      -0.081300
     17 C14          9.8010    -0.3420     3.6030 c          1 RT7       0.680100
     18 O23         10.3990    -1.1700     2.9490 o          1 RT7      -0.564100
     19 N15         10.3010     0.0750     4.7830 ns         1 RT7      -0.473100
     20 C16         11.5660    -0.3570     5.1980 ca         1 RT7       0.172600
     21 C17         11.8200    -0.5710     6.5470 ca         1 RT7      -0.029600
     22 Cl24        10.5690    -0.3030     7.7210 cl         1 RT7      -0.044400
     23 C18         13.0710    -0.9970     6.9540 ca         1 RT7      -0.004000
     24 C19         14.0670    -1.2120     6.0190 ca         1 RT7      -0.362500
     25 S25         15.6600    -1.7560     6.5410 sy         1 RT7       1.230200
     26 N28         15.6370    -3.4110     6.5360 nz         1 RT7      -0.807500
     27 O27         16.5710    -1.3620     5.5240 o          1 RT7      -0.518800
     28 O26         15.7940    -1.3610     7.9000 o          1 RT7      -0.518800
     29 C20         13.8160    -1.0000     4.6760 ca         1 RT7      -0.010000
     30 C21         12.5670    -0.5780     4.2620 ca         1 RT7      -0.132000
     31 H3           1.8860    -0.0440     2.1360 ha         1 RT7       0.161000
     32 H5           1.8810    -0.0100    -2.1350 ha         1 RT7       0.155000
     33 H110         4.0050     0.6270    -3.2270 hc         1 RT7       0.062700
     34 H210         4.5520    -1.0270    -2.9160 hc         1 RT7       0.062700
     35 H19          5.9500     1.5450    -2.1230 hc         1 RT7       0.063700
     36 H29          6.5120     0.3300    -3.2860 hc         1 RT7       0.063700
     37 H18          7.6610     0.0440    -1.1260 h1         1 RT7       0.064700
     38 H28          6.5630    -1.3510    -1.4330 h1         1 RT7       0.064700
     39 H113         7.7090     0.0030     3.8050 h1         1 RT7       0.102700
     40 H213         8.5900     1.2940     2.9770 h1         1 RT7       0.102700
     41 HN15         9.7890     0.7320     5.3390 hn         1 RT7       0.356500
     42 H18A        13.2710    -1.1640     8.0060 ha         1 RT7       0.168000
     43 H128        15.4390    -3.7390     5.6110 hn         1 RT7       0.492467
     44 H228        14.9300    -3.7370     7.1640 hn         1 RT7       0.492467
     45 H20         14.5980    -1.1710     3.9460 ha         1 RT7       0.162000
     46 H21         12.3720    -0.4130     3.2090 ha         1 RT7       0.197000
     47 H283        16.5240    -3.7580     6.8440 hn         1 RT7       0.492467
@<TRIPOS>BOND
     1    18    17 2
     2    28    25 2
     3    29    30 ar
     4    29    24 ar
     5    30    20 ar
     6    17    16 1
     7    17    19 1
     8    16    15 1
     9    25    24 1
    10    25    26 1
    11    25    27 2
    12    14    13 2
    13    24    23 ar
    14    20    19 1
    15    20    21 ar
    16     9    10 1
    17     9     8 1
    18    13    15 1
    19    13    11 1
    20    10    11 1
    21    23    21 ar
    22    11    12 1
    23    21    22 1
    24     8     7 1
    25    12     7 ar
    26    12     4 ar
    27     7     6 ar
    28     5     4 1
    29     4     3 ar
    30     6     2 ar
    31     3     2 ar
    32     2     1 1
    33     3    31 1
    34     6    32 1
    35     8    33 1
    36     8    34 1
    37     9    35 1
    38     9    36 1
    39    10    37 1
    40    10    38 1
    41    16    39 1
    42    16    40 1
    43    19    41 1
    44    23    42 1
    45    26    43 1
    46    26    44 1
    47    29    45 1
    48    30    46 1
    49    47    26 1
@<TRIPOS>SUBSTRUCTURE
     1 RT7         1 TEMP              0 ****  ****    0 ROOT
