@<TRIPOS>MOLECULE
RT8
   58    61     1     0     0
SMALL
bcc


@<TRIPOS>ATOM
      1 O2           0.0000     0.0000     0.0000 o          1 RT8      -0.622100
      2 C6           1.2130     0.0000     0.0000 c          1 RT8       0.550100
      3 N2           1.8860     0.0050    -1.1670 ns         1 RT8      -0.030100
      4 C5           1.1930    -0.1000    -2.3730 ca         1 RT8      -0.059400
      5 C4           1.6600     0.5330    -3.5250 ca         1 RT8      -0.242300
      6 C3           0.9450     0.4030    -4.6970 ca         1 RT8       0.422200
      7 N1          -0.1660    -0.3070    -4.7370 nb         1 RT8      -0.598000
      8 C2          -0.6400    -0.9210    -3.6700 ca         1 RT8       0.422200
      9 C1           0.0180    -0.8470    -2.4610 ca         1 RT8      -0.242300
     10 C7           1.9660     0.0000     1.3050 c3         1 RT8      -0.057300
     11 N3           1.0150     0.0010     2.4190 ns         1 RT8      -0.161900
     12 C8           0.4990    -1.1600     2.8660 c          1 RT8       0.585100
     13 O1           0.8230    -2.2080     2.3460 o          1 RT8      -0.650100
     14 C9          -0.4800    -1.1590     4.0110 c3         1 RT8      -0.118700
     15 C15         -0.9070    -2.5960     4.3180 c3         1 RT8      -0.014900
     16 C14         -1.9020    -2.5950     5.4820 c3         1 RT8      -0.023900
     17 C12         -3.1310    -1.7670     5.1010 c3         1 RT8      -0.054700
     18 C13         -4.1250    -1.7660     6.2640 c3         1 RT8       0.007900
     19 C11         -2.7030    -0.3310     4.7940 c3         1 RT8      -0.023900
     20 C10         -1.7100    -0.3320     3.6310 c3         1 RT8      -0.014900
     21 C16          2.8470     1.2500     1.3860 c3         1 RT8       0.067800
     22 C17          3.6910     1.1890     2.6320 cc         1 RT8      -0.169400
     23 C20          4.9800     0.5090     2.7800 ca         1 RT8      -0.091800
     24 C21          5.7880    -0.2360     1.9180 ca         1 RT8      -0.048000
     25 C22          6.9690    -0.7530     2.3730 ca         1 RT8      -0.123000
     26 C23          7.3730    -0.5400     3.6840 ca         1 RT8      -0.081000
     27 C24          6.5910     0.1920     4.5500 ca         1 RT8      -0.098000
     28 C19          5.3850     0.7260     4.1090 ca         1 RT8      -0.224200
     29 N4           4.4060     1.4840     4.7120 na         1 RT8       0.363600
     30 C18          3.4080     1.7540     3.8170 cd         1 RT8      -0.259100
     31 H2           2.8860     0.0470    -1.1670 hn         1 RT8       0.172500
     32 H7           2.5890    -0.8850     1.3630 h1         1 RT8       0.078700
     33 H4           2.5720     1.1170    -3.4990 ha         1 RT8       0.133000
     34 H1          -0.3770    -1.3540    -1.5880 ha         1 RT8       0.133000
     35 H3           1.3010     0.8910    -5.5960 h4         1 RT8      -0.020400
     36 HA          -1.5550    -1.4970    -3.7460 h4         1 RT8      -0.020400
     37 HB           0.7260     0.8670     2.8290 hn         1 RT8       0.177500
     38 H161         2.2190     2.1320     1.4170 hc         1 RT8       0.022200
     39 H162         3.4900     1.2950     0.5160 hc         1 RT8       0.022200
     40 H9          -0.0140    -0.7280     4.8890 hc         1 RT8       0.033700
     41 H151        -1.3780    -3.0260     3.4430 hc         1 RT8       0.026200
     42 H152        -0.0370    -3.1800     4.5900 hc         1 RT8       0.026200
     43 H101        -1.4060     0.6860     3.4160 hc         1 RT8       0.026200
     44 H102        -2.1800    -0.7660     2.7570 hc         1 RT8       0.026200
     45 H141        -2.2060    -3.6120     5.6960 hc         1 RT8       0.014450
     46 H142        -1.4320    -2.1610     6.3560 hc         1 RT8       0.014450
     47 H12         -3.5960    -2.1980     4.2220 hc         1 RT8       0.032700
     48 H131        -4.9950    -1.1800     5.9950 hc         1 RT8       0.001700
     49 H132        -3.6560    -1.3340     7.1400 hc         1 RT8       0.001700
     50 H133        -4.4280    -2.7830     6.4810 hc         1 RT8       0.001700
     51 H111        -3.5740     0.2540     4.5230 hc         1 RT8       0.014450
     52 H112        -2.2320     0.0990     5.6700 hc         1 RT8       0.014450
     53 H18          2.5210     2.3390     4.0310 h4         1 RT8       0.139000
     54 H21          5.4790    -0.4060     0.8940 ha         1 RT8       0.096000
     55 H22          7.5950    -1.3310     1.7040 ha         1 RT8       0.104000
     56 H23          8.3120    -0.9560     4.0300 ha         1 RT8       0.103000
     57 H24          6.9150     0.3520     5.5720 ha         1 RT8       0.101000
     58 HC           4.4250     1.7960     5.6630 hn         1 RT8       0.115700
@<TRIPOS>BOND
     1     1     2 2   
     2     2     3 1   
     3     2    10 1   
     4     3     4 1   
     5     3    31 1   
     6     4     5 ar  
     7     4     9 ar  
     8     5     6 ar  
     9     5    33 1   
    10     6     7 ar  
    11     6    35 1   
    12     7     8 ar  
    13     8     9 ar  
    14     8    36 1   
    15     9    34 1   
    16    10    11 1   
    17    10    21 1   
    18    10    32 1   
    19    11    12 1   
    20    11    37 1   
    21    12    13 2   
    22    12    14 1   
    23    14    15 1   
    24    14    20 1   
    25    14    40 1   
    26    15    16 1   
    27    15    41 1   
    28    15    42 1   
    29    16    17 1   
    30    16    45 1   
    31    16    46 1   
    32    17    18 1   
    33    17    19 1   
    34    17    47 1   
    35    18    48 1   
    36    18    49 1   
    37    18    50 1   
    38    19    20 1   
    39    19    51 1   
    40    19    52 1   
    41    20    43 1   
    42    20    44 1   
    43    21    22 1   
    44    21    38 1   
    45    21    39 1   
    46    22    23 1   
    47    22    30 2   
    48    23    24 ar  
    49    23    28 ar  
    50    24    25 ar  
    51    24    54 1   
    52    25    26 ar  
    53    25    55 1   
    54    26    27 ar  
    55    26    56 1   
    56    27    28 ar  
    57    27    57 1   
    58    28    29 1   
    59    29    30 1   
    60    29    58 1   
    61    30    53 1   
@<TRIPOS>SUBSTRUCTURE
     1 RT8         1 TEMP              0 ****  ****    0 ROOT
