@<TRIPOS>MOLECULE
molecule
   58    61     1     0     0
SMALL
bcc


@<TRIPOS>ATOM
      1 O2           0.0000     0.0000     0.0000 o          1 RT8      -0.577100
      2 C6           1.2130     0.0000     0.0000 c          1 RT8       0.644100
      3 N2           1.8860     0.0050    -1.1670 ns         1 RT8      -0.477100
      4 C5           1.1930    -0.1000    -2.3730 ca         1 RT8       0.090600
      5 C4           1.6600     0.5330    -3.5250 ca         1 RT8      -0.274300
      6 C3           0.9450     0.4030    -4.6970 ca         1 RT8       0.433700
      7 N1          -0.1660    -0.3070    -4.7370 nb         1 RT8      -0.707000
      8 C2          -0.6400    -0.9210    -3.6700 ca         1 RT8       0.433700
      9 C1           0.0180    -0.8470    -2.4610 ca         1 RT8      -0.274300
     10 C7           1.9660     0.0000     1.3050 c3         1 RT8       0.048700
     11 N3           1.0150     0.0010     2.4190 ns         1 RT8      -0.559900
     12 C8           0.4990    -1.1600     2.8660 c          1 RT8       0.672100
     13 O1           0.8230    -2.2080     2.3460 o          1 RT8      -0.607100
     14 C9          -0.4800    -1.1590     4.0110 c3         1 RT8      -0.140700
     15 C15         -0.9070    -2.5960     4.3180 c3         1 RT8      -0.066900
     16 C14         -1.9020    -2.5950     5.4820 c3         1 RT8      -0.076900
     17 C12         -3.1310    -1.7670     5.1010 c3         1 RT8      -0.074700
     18 C13         -4.1250    -1.7660     6.2640 c3         1 RT8      -0.088100
     19 C11         -2.7030    -0.3310     4.7940 c3         1 RT8      -0.076900
     20 C10         -1.7100    -0.3320     3.6310 c3         1 RT8      -0.066900
     21 C16          2.8470     1.2500     1.3860 c3         1 RT8      -0.009200
     22 C17          3.6910     1.1890     2.6320 cc         1 RT8      -0.165400
     23 C20          4.9800     0.5090     2.7800 ca         1 RT8      -0.096800
     24 C21          5.7880    -0.2360     1.9180 ca         1 RT8      -0.082000
     25 C22          6.9690    -0.7530     2.3730 ca         1 RT8      -0.150000
     26 C23          7.3730    -0.5400     3.6840 ca         1 RT8      -0.105000
     27 C24          6.5910     0.1920     4.5500 ca         1 RT8      -0.140000
     28 C19          5.3850     0.7260     4.1090 ca         1 RT8      -0.035200
     29 N4           4.4060     1.4840     4.7120 na         1 RT8      -0.178400
     30 C18          3.4080     1.7540     3.8170 cd         1 RT8      -0.088100
     31 H2           2.8860     0.0470    -1.1670 hn         1 RT8       0.326500
     32 H7           2.5890    -0.8850     1.3630 h1         1 RT8       0.107700
     33 H4           2.5720     1.1170    -3.4990 ha         1 RT8       0.153500
     34 H1          -0.3770    -1.3540    -1.5880 ha         1 RT8       0.153500
     35 H3           1.3010     0.8910    -5.5960 h4         1 RT8       0.024600
     36 HA          -1.5550    -1.4970    -3.7460 h4         1 RT8       0.024600
     37 HB           0.7260     0.8670     2.8290 hn         1 RT8       0.317500
     38 H161         2.2190     2.1320     1.4170 hc         1 RT8       0.055700
     39 H162         3.4900     1.2950     0.5160 hc         1 RT8       0.055700
     40 H9          -0.0140    -0.7280     4.8890 hc         1 RT8       0.061700
     41 H151        -1.3780    -3.0260     3.4430 hc         1 RT8       0.053950
     42 H152        -0.0370    -3.1800     4.5900 hc         1 RT8       0.053950
     43 H101        -1.4060     0.6860     3.4160 hc         1 RT8       0.053950
     44 H102        -2.1800    -0.7660     2.7570 hc         1 RT8       0.053950
     45 H141        -2.2060    -3.6120     5.6960 hc         1 RT8       0.041700
     46 H142        -1.4320    -2.1610     6.3560 hc         1 RT8       0.041700
     47 H12         -3.5960    -2.1980     4.2220 hc         1 RT8       0.055700
     48 H131        -4.9950    -1.1800     5.9950 hc         1 RT8       0.033367
     49 H132        -3.6560    -1.3340     7.1400 hc         1 RT8       0.033367
     50 H133        -4.4280    -2.7830     6.4810 hc         1 RT8       0.033367
     51 H111        -3.5740     0.2540     4.5230 hc         1 RT8       0.041700
     52 H112        -2.2320     0.0990     5.6700 hc         1 RT8       0.041700
     53 H18          2.5210     2.3390     4.0310 h4         1 RT8       0.162000
     54 H21          5.4790    -0.4060     0.8940 ha         1 RT8       0.124000
     55 H22          7.5950    -1.3310     1.7040 ha         1 RT8       0.131000
     56 H23          8.3120    -0.9560     4.0300 ha         1 RT8       0.133000
     57 H24          6.9150     0.3520     5.5720 ha         1 RT8       0.127000
     58 HC           4.4250     1.7960     5.6630 hn         1 RT8       0.298700
@<TRIPOS>BOND
     1     1     2 2
     2     2     3 1
     3     2    10 1
     4     3     4 1
     5     4     5 ar
     6     4     9 ar
     7     5     6 ar
     8     6     7 ar
     9     7     8 ar
    10     8     9 ar
    11    10    11 1
    12    10    21 1
    13    11    12 1
    14    12    13 2
    15    12    14 1
    16    14    15 1
    17    14    20 1
    18    15    16 1
    19    16    17 1
    20    17    18 1
    21    17    19 1
    22    19    20 1
    23    21    22 1
    24    22    23 1
    25    22    30 2
    26    23    24 ar
    27    23    28 ar
    28    24    25 ar
    29    25    26 ar
    30    26    27 ar
    31    27    28 ar
    32    28    29 1
    33    29    30 1
    34     3    31 1
    35    10    32 1
    36     5    33 1
    37     9    34 1
    38     6    35 1
    39     8    36 1
    40    11    37 1
    41    21    38 1
    42    21    39 1
    43    14    40 1
    44    15    41 1
    45    15    42 1
    46    20    43 1
    47    20    44 1
    48    16    45 1
    49    16    46 1
    50    17    47 1
    51    18    48 1
    52    18    49 1
    53    18    50 1
    54    19    51 1
    55    19    52 1
    56    30    53 1
    57    24    54 1
    58    25    55 1
    59    26    56 1
    60    27    57 1
    61    29    58 1
@<TRIPOS>SUBSTRUCTURE
     1 RT8         1 TEMP              0 ****  ****    0 ROOT
