@<TRIPOS>MOLECULE
RTD
   18    18     1     0     0
SMALL
bcc


@<TRIPOS>ATOM
      1 O1          0.5550   -1.2540    0.0490 o         1 RTD     -0.821300
      2 C           1.3430   -0.2650    0.0530 c         1 RTD      0.924600
      3 O2          1.5680    0.4840   -0.9310 o         1 RTD     -0.821300
      4 CA          2.1100    0.0610    1.3690 c3        1 RTD     -0.034300
      5 S1          2.8030   -1.4110    2.1250 sh        1 RTD     -0.501900
      6 CB          1.2570    0.7660    2.3560 ca        1 RTD     -0.017300
      7 CG1         1.7810    1.8170    3.1210 ca        1 RTD     -0.122500
      8 CD1         0.9860    2.4790    4.0550 ca        1 RTD     -0.145500
      9 CE         -0.3440    2.1020    4.2360 ca        1 RTD     -0.158000
     10 CD2        -0.8760    1.0630    3.4720 ca        1 RTD     -0.145500
     11 CG2        -0.0860    0.4000    2.5370 ca        1 RTD     -0.122500
     12 HA          2.9960    0.6900    1.0970 h1        1 RTD      0.078700
     13 H2          1.9750   -2.3110    1.5880 hs        1 RTD      0.262800
     14 HG1         2.8280    2.1220    2.9800 ha        1 RTD      0.149500
     15 HD1         1.4090    3.3000    4.6490 ha        1 RTD      0.109000
     16 HE         -0.9700    2.6230    4.9720 ha        1 RTD      0.105000
     17 HD2        -1.9270    0.7680    3.6040 ha        1 RTD      0.109000
     18 HG2        -0.4990   -0.4130    1.9110 ha        1 RTD      0.149500
@<TRIPOS>BOND
     1    1    2 1   
     2    2    3 1   
     3    2    4 1   
     4    4    5 1   
     5    4    6 1   
     6    4   12 1   
     7    5   13 1   
     8    6    7 ar  
     9    6   11 ar  
    10    7    8 ar  
    11    7   14 1   
    12    8    9 ar  
    13    8   15 1   
    14    9   10 ar  
    15    9   16 1   
    16   10   11 ar  
    17   10   17 1   
    18   11   18 1   
@<TRIPOS>SUBSTRUCTURE
     1 RTD         1 TEMP              0 ****  ****    0 ROOT
