@<TRIPOS>MOLECULE
molecule
   18    18     1     0     0
SMALL
bcc


@<TRIPOS>ATOM
      1 O1           0.0000     0.0000     0.0000 o          1 RTD      -0.826300
      2 C            1.2080     0.0000     0.0000 c          1 RTD       0.908600
      3 O2           1.8790     0.0050    -1.1630 o          1 RTD      -0.826300
      4 CA           1.9630     0.0000     1.3040 c3         1 RTD       0.004700
      5 S1           2.2650    -1.7100     1.8290 sh         1 RTD      -0.438900
      6 CB           1.1490     0.7110     2.3550 ca         1 RTD      -0.029300
      7 CG1          1.6580     1.8350     2.9790 ca         1 RTD      -0.096000
      8 CD1          0.9120     2.4870     3.9430 ca         1 RTD      -0.150500
      9 CE          -0.3420     2.0150     4.2830 ca         1 RTD      -0.151000
     10 CD2         -0.8500     0.8910     3.6590 ca         1 RTD      -0.150500
     11 CG2         -0.1070     0.2420     2.6910 ca         1 RTD      -0.096000
     12 HA           2.9100     0.5100     1.1740 h1         1 RTD       0.061700
     13 H2           3.5660    -1.9650     1.7800 hs         1 RTD       0.185800
     14 HG1          2.6400     2.2050     2.7130 ha         1 RTD       0.141500
     15 HD1          1.3090     3.3680     4.4320 ha         1 RTD       0.108500
     16 HE          -0.9260     2.5250     5.0400 ha         1 RTD       0.103000
     17 HD2         -1.8340     0.5230     3.9240 ha         1 RTD       0.108500
     18 HG2         -0.5060    -0.6380     2.2020 ha         1 RTD       0.141500
@<TRIPOS>BOND
     1    10    11 ar
     2    10     9 ar
     3    11     6 ar
     4     1     2 1
     5     9     8 ar
     6     3     2 1
     7     2     4 1
     8     6     4 1
     9     6     7 ar
    10     5     4 1
    11     8     7 ar
    12     4    12 1
    13     5    13 1
    14     7    14 1
    15     8    15 1
    16     9    16 1
    17    10    17 1
    18    11    18 1
@<TRIPOS>SUBSTRUCTURE
     1 RTD         1 TEMP              0 ****  ****    0 ROOT
