@<TRIPOS>MOLECULE
molecule
   45    48     1     0     0
SMALL
bcc


@<TRIPOS>ATOM
      1 C1           0.0000     0.0000     0.0000 ca         1 RTE      -0.055600
      2 C2           1.3870     0.0000     0.0000 ca         1 RTE       0.181900
      3 C3           2.0780     0.0000     1.1980 ca         1 RTE      -0.240000
      4 C4           1.3820    -0.0010     2.3990 ca         1 RTE       0.169100
      5 C5          -0.0050    -0.0010     2.3950 ca         1 RTE      -0.172000
      6 C6          -0.6930     0.0060     1.1960 ca         1 RTE      -0.069000
      7 O7           2.0590    -0.0010     3.5770 os         1 RTE      -0.241200
      8 C8           3.4170     0.0110     3.5330 ca         1 RTE       0.085100
      9 F9           2.0620     0.0000    -1.1700 f          1 RTE      -0.120900
     10 C10          4.0940     1.2180     3.5210 ca         1 RTE      -0.129000
     11 C11          5.4820     1.2260     3.4750 ca         1 RTE      -0.089200
     12 C12          6.1880     0.0120     3.4430 ca         1 RTE       0.098400
     13 C13          5.4850    -1.1950     3.4570 ca         1 RTE      -0.059000
     14 C14          4.1210    -1.1900     3.5060 ca         1 RTE      -0.161000
     15 N15          6.4360     2.2240     3.4520 na         1 RTE      -0.143300
     16 C16          7.6530     1.6180     3.4080 cc         1 RTE       0.447800
     17 N17          7.5100     0.3260     3.4030 nd         1 RTE      -0.586100
     18 C18          6.1830     3.6670     3.4710 c3         1 RTE       0.036600
     19 C19          8.9770     2.3400     3.3710 c3         1 RTE       0.140100
     20 O20          9.3510     2.5780     2.0120 os         1 RTE      -0.329900
     21 C21         10.5270     3.2240     1.8010 ca         1 RTE       0.092100
     22 C22         10.9500     3.4870     0.5100 ca         1 RTE      -0.124000
     23 C23         12.1600     4.1520     0.2980 ca         1 RTE      -0.069600
     24 C24         12.9330     4.5470     1.3890 ca         1 RTE      -0.122000
     25 C25         12.5020     4.2800     2.6730 ca         1 RTE      -0.130000
     26 C26         11.3020     3.6260     2.8810 ca         1 RTE      -0.246000
     27 C27         12.6170     4.4350    -1.0790 c          1 RTE       0.881200
     28 O28         11.9420     4.0900    -2.0270 o          1 RTE      -0.830800
     29 O29         13.7850     5.0770    -1.2810 o          1 RTE      -0.830800
     30 Cl1         -0.8660     0.0010    -1.5040 cl         1 RTE      -0.096400
     31 H1           3.1610     0.0000     1.1990 ha         1 RTE       0.175000
     32 H2          -0.5500     0.0010     3.3310 ha         1 RTE       0.150000
     33 H3          -1.7770     0.0050     1.1940 ha         1 RTE       0.149000
     34 H4           3.5510     2.1450     3.6640 ha         1 RTE       0.139000
     35 H5           6.0220    -2.1350     3.4360 ha         1 RTE       0.148000
     36 H6           3.5810    -2.1290     3.5300 ha         1 RTE       0.142000
     37 H7           6.5650     4.1120     2.5610 h1         1 RTE       0.057367
     38 H8           5.1170     3.8460     3.5420 h1         1 RTE       0.057367
     39 H9           6.6800     4.1090     4.3260 h1         1 RTE       0.057367
     40 H10          9.7330     1.7320     3.8520 h1         1 RTE       0.053700
     41 H11          8.8870     3.2850     3.8920 h1         1 RTE       0.053700
     42 H12         10.3890     3.1020    -0.3330 ha         1 RTE       0.162000
     43 H13         13.8790     5.0490     1.2290 ha         1 RTE       0.157000
     44 H14         13.1060     4.5820     3.5190 ha         1 RTE       0.107000
     45 H15         10.9660     3.4230     3.8910 ha         1 RTE       0.102000
@<TRIPOS>BOND
     1    28    27 1
     2    27    29 1
     3    27    23 1
     4    24    23 ar
     5    24    25 ar
     6    23    22 ar
     7    25    26 ar
     8    22    21 ar
     9    26    21 ar
    10    21    20 1
    11    20    19 1
    12    19    16 1
    13    16    17 2
    14    16    15 1
    15    17    12 1
    16    18    15 1
    17    15    11 1
    18    12    11 ar
    19    12    13 ar
    20    11    10 ar
    21    13    14 ar
    22    10     8 ar
    23    14     8 ar
    24     8     7 1
    25     7     4 1
    26     5     4 ar
    27     5     6 ar
    28     4     3 ar
    29     6     1 ar
    30     3     2 ar
    31     1     2 ar
    32     1    30 1
    33     2     9 1
    34     3    31 1
    35     5    32 1
    36     6    33 1
    37    10    34 1
    38    13    35 1
    39    14    36 1
    40    18    37 1
    41    18    38 1
    42    18    39 1
    43    19    40 1
    44    19    41 1
    45    22    42 1
    46    24    43 1
    47    25    44 1
    48    26    45 1
@<TRIPOS>SUBSTRUCTURE
     1 RTE         1 TEMP              0 ****  ****    0 ROOT
