@<TRIPOS>MOLECULE
molecule
   50    53     1     0     0
SMALL
bcc


@<TRIPOS>ATOM
      1 C1           0.0000     0.0000     0.0000 ca         1 RTF       0.112100
      2 C2           1.3830     0.0000     0.0000 ca         1 RTF      -0.124000
      3 C3          -0.0410     0.0060     2.3950 ca         1 RTF      -0.062000
      4 C4          -0.7040     0.0060     1.2020 ca         1 RTF      -0.148000
      5 C5           1.3570    -0.0010     2.4170 ca         1 RTF       0.093400
      6 C6           2.0690     0.0000     1.2060 ca         1 RTF      -0.083200
      7 N7           3.4070    -0.0070     1.5510 na         1 RTF      -0.145300
      8 C8           3.4740    -0.0120     2.9100 cc         1 RTF       0.439800
      9 N9           2.2760    -0.0080     3.4180 nd         1 RTF      -0.587100
     10 C10          4.5420    -0.0100     0.6250 c3         1 RTF       0.038600
     11 C11          4.7510    -0.0200     3.7110 c3         1 RTF       0.141100
     12 O12          5.1480    -1.3700     3.9610 os         1 RTF      -0.328900
     13 O13         -0.6760     0.0010    -1.1800 os         1 RTF      -0.358400
     14 C14          6.2880    -1.5550     4.6760 ca         1 RTF       0.094100
     15 C15          6.7300    -2.8380     4.9540 ca         1 RTF      -0.125000
     16 C16          7.9020    -3.0230     5.6890 ca         1 RTF      -0.070600
     17 C17          8.6210    -1.9140     6.1380 ca         1 RTF      -0.123000
     18 C18          8.1710    -0.6410     5.8560 ca         1 RTF      -0.130000
     19 C19          7.0130    -0.4580     5.1240 ca         1 RTF      -0.246000
     20 C20          8.3800    -4.3880     5.9890 c          1 RTF       0.882200
     21 O21          9.5120    -4.5650     6.6990 o          1 RTF      -0.831800
     22 O22          7.7530    -5.3510     5.5980 o          1 RTF      -0.831800
     23 C23         -0.6470    -1.1290    -1.9310 ca         1 RTF       0.647600
     24 C24         -1.2200    -1.1280    -3.1970 ca         1 RTF      -0.218600
     25 C25         -1.1830    -2.2860    -3.9530 ca         1 RTF      -0.071000
     26 C26         -0.5710    -3.4090    -3.4140 ca         1 RTF      -0.246600
     27 C27         -0.0210    -3.3380    -2.1500 ca         1 RTF       0.457200
     28 N28         -0.0670    -2.2180    -1.4550 nb         1 RTF      -0.737000
     29 C29         -1.8740     0.1170    -3.7390 c3         1 RTF      -0.032800
     30 C30         -0.5070    -4.6930    -4.2010 c3         1 RTF      -0.037800
     31 H1           1.9280    -0.0050    -0.9360 ha         1 RTF       0.133000
     32 H2          -0.5970     0.0100     3.3250 ha         1 RTF       0.144000
     33 H3          -1.7870     0.0060     1.1900 ha         1 RTF       0.137000
     34 H4           5.2150     0.8000     0.8770 h1         1 RTF       0.054700
     35 H5           5.0680    -0.9540     0.7010 h1         1 RTF       0.054700
     36 H6           4.1810     0.1220    -0.3880 h1         1 RTF       0.054700
     37 H7           5.5290     0.4890     3.1560 h1         1 RTF       0.052200
     38 H8           4.5880     0.4890     4.6540 h1         1 RTF       0.052200
     39 H9           6.1680    -3.6950     4.6030 ha         1 RTF       0.161000
     40 H10          9.5310    -2.0530     6.7110 ha         1 RTF       0.156000
     41 H11          8.7310     0.2190     6.2030 ha         1 RTF       0.106000
     42 H12          6.6660     0.5450     4.9050 ha         1 RTF       0.103000
     43 H14         -1.6210    -2.3160    -4.9430 ha         1 RTF       0.138000
     44 H15          0.4600    -4.2120    -1.7260 h4         1 RTF       0.030100
     45 H16         -2.7270     0.3740    -3.1230 hc         1 RTF       0.043700
     46 H17         -2.2030    -0.0610    -4.7560 hc         1 RTF       0.043700
     47 H18         -1.1610     0.9330    -3.7290 hc         1 RTF       0.043700
     48 H19         -0.3990    -5.5290    -3.5200 hc         1 RTF       0.041700
     49 H20          0.3420    -4.6630    -4.8730 hc         1 RTF       0.041700
     50 H21         -1.4180    -4.8100    -4.7760 hc         1 RTF       0.041700
@<TRIPOS>BOND
     1    22    20 1
     2    21    20 1
     3    20    16 1
     4    17    16 ar
     5    17    18 ar
     6    16    15 ar
     7    18    19 ar
     8    15    14 ar
     9    19    14 ar
    10    14    12 1
    11    12    11 1
    12    11     8 1
    13     8     9 2
    14     8     7 1
    15     9     5 1
    16    10     7 1
    17     7     6 1
    18     5     6 ar
    19     5     3 ar
    20     6     2 ar
    21     3     4 ar
    22     2     1 ar
    23     4     1 ar
    24     1    13 1
    25    13    23 1
    26    28    23 ar
    27    28    27 ar
    28    23    24 ar
    29    27    26 ar
    30    24    29 1
    31    24    25 ar
    32    26    25 ar
    33    26    30 1
    34     2    31 1
    35     3    32 1
    36     4    33 1
    37    10    34 1
    38    10    35 1
    39    10    36 1
    40    11    37 1
    41    11    38 1
    42    15    39 1
    43    17    40 1
    44    18    41 1
    45    19    42 1
    46    25    43 1
    47    27    44 1
    48    29    45 1
    49    29    46 1
    50    29    47 1
    51    30    48 1
    52    30    49 1
    53    30    50 1
@<TRIPOS>SUBSTRUCTURE
     1 RTF         1 TEMP              0 ****  ****    0 ROOT
