@<TRIPOS>MOLECULE
molecule
   43    45     1     0     0
SMALL
bcc


@<TRIPOS>ATOM
      1 C4           0.0000     0.0000     0.0000 ca         1 RTH      -0.084000
      2 C5           1.4010     0.0000     0.0000 ca         1 RTH      -0.171300
      3 C6           2.1050     0.0000     1.2290 ca         1 RTH       0.455600
      4 C8           4.1280     0.0010     0.1060 ca         1 RTH       0.692200
      5 C10          2.1290     0.0010    -1.2090 ca         1 RTH      -0.064000
      6 C13         -4.2610    -0.9070     2.0010 ca         1 RTH      -0.135000
      7 C15         -4.2430     0.9390     0.4690 ca         1 RTH      -0.112000
      8 C20         -0.6640    -3.4170     4.3580 c3         1 RTH       0.047100
      9 C21          0.8350    -3.4610     4.1090 c3         1 RTH      -0.110100
     10 C22         -0.8150    -4.6530     4.5810 c3         1 RTH      -0.110100
     11 C23         -0.7070    -2.7570     5.9190 c3         1 RTH      -0.110100
     12 C19         -1.5760    -2.6830     3.4270 c1         1 RTH      -0.079100
     13 C12         -2.8680    -0.9240     2.0010 ca         1 RTH       0.033000
     14 C14         -4.9390     0.0200     1.2360 ca         1 RTH      -0.122000
     15 C16         -2.8630     0.9330     0.4510 ca         1 RTH      -0.145000
     16 C11         -2.1610     0.0060     1.2170 cp         1 RTH      -0.005000
     17 C1          -0.6800    -0.0000     1.2070 cp         1 RTH      -0.085000
     18 C9           3.4890     0.0020    -1.1430 ca         1 RTH      -0.312300
     19 N17          5.5140     0.0020     0.1570 nv         1 RTH      -0.980500
     20 N7           3.4430     0.0010     1.2310 nb         1 RTH      -0.768000
     21 C3           1.3840    -0.0000     2.4370 ca         1 RTH      -0.188300
     22 C2           0.0270    -0.0060     2.4210 ca         1 RTH      -0.077000
     23 H4          -0.6540     0.4680    -0.7260 ha         1 RTH       0.140000
     24 H10          1.9390     0.0410    -2.2750 ha         1 RTH       0.145000
     25 H13         -4.7670    -1.7920     2.3660 ha         1 RTH       0.142000
     26 H15         -4.4250     1.5910    -0.3770 ha         1 RTH       0.141000
     27 H21          1.1190    -2.4200     4.0190 hc         1 RTH       0.042478
     28 H21A         1.6030    -3.8440     4.7700 hc         1 RTH       0.042478
     29 H21B         0.9230    -3.5190     3.0310 hc         1 RTH       0.042478
     30 H22         -1.1620    -5.0660     3.6420 hc         1 RTH       0.042478
     31 H22A        -0.3000    -5.4030     5.1690 hc         1 RTH       0.042478
     32 H22B        -1.8660    -4.6480     4.8400 hc         1 RTH       0.042478
     33 H23         -1.7490    -2.8700     6.1940 hc         1 RTH       0.042478
     34 H23A         0.1150    -3.0830     6.5450 hc         1 RTH       0.042478
     35 H23B        -0.2110    -1.8000     5.8140 hc         1 RTH       0.042478
     36 H14         -5.8830    -0.1510     1.7390 ha         1 RTH       0.153000
     37 H16         -2.4920     1.7370    -0.1740 ha         1 RTH       0.138000
     38 H9           3.8200     0.3150    -2.1260 ha         1 RTH       0.137000
     39 HN17         5.9590    -0.1240     1.0450 hn         1 RTH       0.429800
     40 HN1A         5.9160     0.5500    -0.5770 hn         1 RTH       0.429800
     41 H3           2.1070    -0.2630     3.2010 ha         1 RTH       0.160000
     42 H2          -0.6720    -0.0550     3.2470 ha         1 RTH       0.148000
     43 C18         -2.1580    -1.8830     2.7930 cg         1 RTH      -0.113000
@<TRIPOS>BOND
     1     2     1 ar
     2     1    17 ar
     3     1    23 1
     4     3     2 ar
     5     5     2 ar
     6    20     3 ar
     7     3    21 ar
     8    19     4 1
     9     4    20 ar
    10     4    18 ar
    11    18     5 ar
    12     5    24 1
    13    13     6 ar
    14     6    14 ar
    15     6    25 1
    16    15     7 ar
    17     7    14 ar
    18     7    26 1
    19     9     8 1
    20    10     8 1
    21    11     8 1
    22     8    12 1
    23     9    27 1
    24     9    28 1
    25     9    29 1
    26    10    30 1
    27    10    31 1
    28    10    32 1
    29    11    33 1
    30    11    34 1
    31    11    35 1
    32    12    43 3
    33    43    13 1
    34    16    13 ar
    35    14    36 1
    36    16    15 ar
    37    15    37 1
    38    17    16 1
    39    22    17 ar
    40    18    38 1
    41    19    39 1
    42    19    40 1
    43    21    22 ar
    44    21    41 1
    45    22    42 1
@<TRIPOS>SUBSTRUCTURE
     1 RTH         1 TEMP              0 ****  ****    0 ROOT
