@<TRIPOS>MOLECULE
RTH
   43    45     1     0     0
SMALL
bcc


@<TRIPOS>ATOM
      1 C4           0.0000     0.0000     0.0000 ca         1 RTH      -0.065000
      2 C5           1.4010     0.0000     0.0000 ca         1 RTH      -0.159300
      3 C6           2.1050     0.0000     1.2290 ca         1 RTH       0.407600
      4 C8           4.1280     0.0010     0.1060 ca         1 RTH       0.513200
      5 C10          2.1290     0.0010    -1.2090 ca         1 RTH      -0.038000
      6 C13         -4.2610    -0.9070     2.0010 ca         1 RTH      -0.125000
      7 C15         -4.2430     0.9390     0.4690 ca         1 RTH      -0.085000
      8 C20         -0.6640    -3.4170     4.3580 c3         1 RTH       0.094100
      9 C21          0.8350    -3.4610     4.1090 c3         1 RTH      -0.036433
     10 C22         -0.8150    -4.6530     4.5810 c3         1 RTH      -0.036433
     11 C23         -0.7070    -2.7570     5.9190 c3         1 RTH      -0.036433
     12 C19         -1.5760    -2.6830     3.4270 c1         1 RTH      -0.090100
     13 C12         -2.8680    -0.9240     2.0010 ca         1 RTH       0.060000
     14 C14         -4.9390     0.0200     1.2360 ca         1 RTH      -0.092000
     15 C16         -2.8630     0.9330     0.4510 ca         1 RTH      -0.128000
     16 C11         -2.1610     0.0060     1.2170 cp         1 RTH       0.000000
     17 C1          -0.6800    -0.0000     1.2070 cp         1 RTH      -0.085000
     18 C9           3.4890     0.0020    -1.1430 ca         1 RTH      -0.293300
     19 N17          5.5140     0.0020     0.1570 nv         1 RTH      -0.534500
     20 N7           3.4430     0.0010     1.2310 nb         1 RTH      -0.660000
     21 C3           1.3840    -0.0000     2.4370 ca         1 RTH      -0.164300
     22 C2           0.0270    -0.0060     2.4210 ca         1 RTH      -0.058000
     23 H4          -0.6540     0.4680    -0.7260 ha         1 RTH       0.117000
     24 H10          1.9390     0.0410    -2.2750 ha         1 RTH       0.116000
     25 H13         -4.7670    -1.7920     2.3660 ha         1 RTH       0.115000
     26 H15         -4.4250     1.5910    -0.3770 ha         1 RTH       0.114000
     27 H21          1.1190    -2.4200     4.0190 hc         1 RTH       0.013367
     28 H21A         1.6030    -3.8440     4.7700 hc         1 RTH       0.013367
     29 H21B         0.9230    -3.5190     3.0310 hc         1 RTH       0.013367
     30 H22         -1.1620    -5.0660     3.6420 hc         1 RTH       0.013367
     31 H22A        -0.3000    -5.4030     5.1690 hc         1 RTH       0.013367
     32 H22B        -1.8660    -4.6480     4.8400 hc         1 RTH       0.013367
     33 H23         -1.7490    -2.8700     6.1940 hc         1 RTH       0.013367
     34 H23A         0.1150    -3.0830     6.5450 hc         1 RTH       0.013367
     35 H23B        -0.2110    -1.8000     5.8140 hc         1 RTH       0.013367
     36 H14         -5.8830    -0.1510     1.7390 ha         1 RTH       0.126000
     37 H16         -2.4920     1.7370    -0.1740 ha         1 RTH       0.113000
     38 H9           3.8200     0.3150    -2.1260 ha         1 RTH       0.120000
     39 HN17         5.9590    -0.1240     1.0450 hn         1 RTH       0.266800
     40 HN1A         5.9160     0.5500    -0.5770 hn         1 RTH       0.266800
     41 H3           2.1070    -0.2630     3.2010 ha         1 RTH       0.130000
     42 H2          -0.6720    -0.0550     3.2470 ha         1 RTH       0.122000
     43 C18         -2.1580    -1.8830     2.7930 cg         1 RTH      -0.111000
@<TRIPOS>BOND
     1     1     2 ar  
     2     1    17 ar  
     3     1    23 1   
     4     2     3 ar  
     5     2     5 ar  
     6     3    20 ar  
     7     3    21 ar  
     8     4    18 ar  
     9     4    19 1   
    10     4    20 ar  
    11     5    18 ar  
    12     5    24 1   
    13     6    13 ar  
    14     6    14 ar  
    15     6    25 1   
    16     7    14 ar  
    17     7    15 ar  
    18     7    26 1   
    19     8     9 1   
    20     8    10 1   
    21     8    11 1   
    22     8    12 1   
    23     9    27 1   
    24     9    28 1   
    25     9    29 1   
    26    10    30 1   
    27    10    31 1   
    28    10    32 1   
    29    11    33 1   
    30    11    34 1   
    31    11    35 1   
    32    12    43 3   
    33    13    16 ar  
    34    13    43 1   
    35    14    36 1   
    36    15    16 ar  
    37    15    37 1   
    38    16    17 1   
    39    17    22 ar  
    40    18    38 1   
    41    19    39 1   
    42    19    40 1   
    43    21    22 ar  
    44    21    41 1   
    45    22    42 1   
@<TRIPOS>SUBSTRUCTURE
     1 RTH         1 TEMP              0 ****  ****    0 ROOT
