@<TRIPOS>MOLECULE
molecule
   26    25     1     0     0
SMALL
bcc


@<TRIPOS>ATOM
      1 O7           0.0000     0.0000     0.0000 o          1 RTK      -0.774000
      2 P5           1.4800     0.0000     0.0000 p5         1 RTK       0.959600
      3 O4           2.0160     0.0000     1.5180 o          1 RTK      -0.774000
      4 C6           2.0880     1.4890    -0.8590 c3         1 RTK      -0.251600
      5 C3           1.5770     1.4900    -2.3020 c3         1 RTK      -0.082400
      6 C2           2.0870     2.7390    -3.0220 c3         1 RTK       0.098800
      7 N1           1.5980     2.7390    -4.4070 n4         1 RTK      -0.577800
      8 C28          0.1290     2.7380    -4.4080 c3         1 RTK       0.096100
      9 C9           2.0880     3.9390    -5.0990 c3         1 RTK       0.096100
     10 C8           2.0890     1.5400    -5.1000 c3         1 RTK       0.096100
     11 H5           1.9490    -1.1470    -0.6620 hp         1 RTK      -0.172400
     12 H61C         3.1710     1.4890    -0.8600 hc         1 RTK       0.067200
     13 H62C         1.7270     2.3740    -0.3480 hc         1 RTK       0.067200
     14 H31C         1.9380     0.6050    -2.8130 hc         1 RTK       0.058700
     15 H32C         0.4940     1.4900    -2.3010 hc         1 RTK       0.058700
     16 H21C         1.7260     3.6230    -2.5120 hx         1 RTK       0.094200
     17 H22C         3.1710     2.7390    -3.0220 hx         1 RTK       0.094200
     18 H281        -0.2330     3.4080    -3.6380 hx         1 RTK       0.093922
     19 H282        -0.2320     3.0700    -5.3740 hx         1 RTK       0.093922
     20 H283        -0.2320     1.7360    -4.2130 hx         1 RTK       0.093922
     21 H91C         1.7270     3.9390    -6.1210 hx         1 RTK       0.093922
     22 H92C         1.7260     4.8230    -4.5880 hx         1 RTK       0.093922
     23 H93C         3.1710     3.9390    -5.0980 hx         1 RTK       0.093922
     24 H81C         1.4880     0.6850    -4.8120 hx         1 RTK       0.093922
     25 H82C         3.1220     1.3630    -4.8280 hx         1 RTK       0.093922
     26 H83C         2.0170     1.6870    -6.1710 hx         1 RTK       0.093922
@<TRIPOS>BOND
     1     1     2 1
     2     2     3 1
     3     2     4 1
     4     2    11 1
     5     4     5 1
     6     5     6 1
     7     6     7 1
     8     7     8 1
     9     7     9 1
    10     7    10 1
    11     4    12 1
    12     4    13 1
    13     5    14 1
    14     5    15 1
    15     6    16 1
    16     6    17 1
    17     8    18 1
    18     8    19 1
    19     8    20 1
    20     9    21 1
    21     9    22 1
    22     9    23 1
    23    10    24 1
    24    10    25 1
    25    10    26 1
@<TRIPOS>SUBSTRUCTURE
     1 RTK         1 TEMP              0 ****  ****    0 ROOT
