@<TRIPOS>MOLECULE
molecule
   51    51     1     0     0
SMALL
bcc


@<TRIPOS>ATOM
      1 C1           0.0000     0.0000     0.0000 c3         1 RTL      -0.019800
      2 C2           1.5440     0.0000     0.0000 c3         1 RTL      -0.057400
      3 C3           2.0820     0.0000     1.4200 c3         1 RTL      -0.093400
      4 C4           1.5500    -0.5430     2.7340 c3         1 RTL      -0.011200
      5 C5           0.0660    -0.7560     2.4550 c2         1 RTL      -0.113400
      6 C6          -0.6440    -0.4850     1.3090 ce         1 RTL      -0.067200
      7 C7          -2.1010    -0.5980     1.2560 ce         1 RTL      -0.113000
      8 C8          -2.9500     0.1070     2.0330 cf         1 RTL      -0.132000
      9 C9          -4.3920    -0.0310     1.8960 cf         1 RTL      -0.081200
     10 C10         -5.1950     0.5650     2.8320 ce         1 RTL      -0.134000
     11 C11         -6.6700     0.6290     2.8790 ce         1 RTL      -0.111000
     12 C12         -7.1060     1.5500     3.7850 cf         1 RTL      -0.124000
     13 C13         -8.4260     2.0580     4.1420 cf         1 RTL      -0.091200
     14 C14         -8.9200     2.5390     5.3190 c2         1 RTL      -0.144200
     15 C15        -10.3830     2.5990     5.4790 c3         1 RTL       0.173600
     16 O1         -10.8060     1.9940     6.6290 oh         1 RTL      -0.595800
     17 C16         -0.2670    -0.9820    -1.1560 c3         1 RTL      -0.079100
     18 C17         -0.3860     1.4150    -0.4400 c3         1 RTL      -0.079100
     19 C18         -0.6920    -0.9150     3.7730 c3         1 RTL      -0.064900
     20 C19         -4.9170    -1.1460     0.9940 c3         1 RTL      -0.049900
     21 C20         -9.3350     1.1390     3.3260 c3         1 RTL      -0.074900
     22 H21          1.8990    -0.8850    -0.5140 hc         1 RTL       0.045200
     23 H22          1.8990     0.8850    -0.5140 hc         1 RTL       0.045200
     24 H31          2.2640     1.0480     1.6270 hc         1 RTL       0.021700
     25 H32          3.0580    -0.4600     1.3260 hc         1 RTL       0.021700
     26 H41          1.6870     0.1820     3.5280 hc         1 RTL       0.056700
     27 H42          2.0300    -1.4830     2.9790 hc         1 RTL       0.056700
     28 H7          -2.5210    -1.2760     0.5230 ha         1 RTL       0.128000
     29 H8          -2.5520     0.8110     2.7530 ha         1 RTL       0.129000
     30 H10         -4.6930     1.1050     3.6250 ha         1 RTL       0.120000
     31 H11         -7.3340     0.0890     2.2160 ha         1 RTL       0.143000
     32 H12         -6.3170     2.0680     4.3170 ha         1 RTL       0.103000
     33 H14         -8.2810     2.5860     6.1920 ha         1 RTL       0.146000
     34 H151       -10.8490     2.1080     4.6330 h1         1 RTL       0.025700
     35 H152       -10.6910     3.6370     5.4960 h1         1 RTL       0.025700
     36 HO1        -11.5950     2.4120     6.9310 ho         1 RTL       0.408000
     37 H161        -1.2930    -0.8780    -1.4890 hc         1 RTL       0.035200
     38 H162         0.4030    -0.7630    -1.9790 hc         1 RTL       0.035200
     39 H163        -0.0990    -1.9960    -0.8150 hc         1 RTL       0.035200
     40 H171        -0.1860     2.1100     0.3660 hc         1 RTL       0.035200
     41 H172         0.1960     1.6930    -1.3100 hc         1 RTL       0.035200
     42 H173        -1.4400     1.4410    -0.6870 hc         1 RTL       0.035200
     43 H181        -1.5410    -1.5700     3.6250 hc         1 RTL       0.040700
     44 H182        -0.0320    -1.3410     4.5200 hc         1 RTL       0.040700
     45 H183        -1.0380     0.0550     4.1100 hc         1 RTL       0.040700
     46 H191        -4.7260    -0.8920    -0.0420 hc         1 RTL       0.043033
     47 H192        -5.9830    -1.2630     1.1460 hc         1 RTL       0.043033
     48 H193        -4.4140    -2.0740     1.2370 hc         1 RTL       0.043033
     49 H201        -8.9230     1.0120     2.3320 hc         1 RTL       0.042700
     50 H202        -9.4040     0.1740     3.8140 hc         1 RTL       0.042700
     51 H203       -10.3220     1.5780     3.2540 hc         1 RTL       0.042700
@<TRIPOS>BOND
     1     1     2 1
     2     1     6 1
     3     1    17 1
     4     1    18 1
     5     2     3 1
     6     2    22 1
     7     2    23 1
     8     3     4 1
     9     3    24 1
    10     3    25 1
    11     4     5 1
    12     4    26 1
    13     4    27 1
    14     5     6 2
    15     5    19 1
    16     6     7 1
    17     7     8 2
    18     7    28 1
    19     8     9 1
    20     8    29 1
    21     9    10 2
    22     9    20 1
    23    10    11 1
    24    10    30 1
    25    11    12 2
    26    11    31 1
    27    12    13 1
    28    12    32 1
    29    13    14 2
    30    13    21 1
    31    14    15 1
    32    14    33 1
    33    15    16 1
    34    15    34 1
    35    15    35 1
    36    16    36 1
    37    17    37 1
    38    17    38 1
    39    17    39 1
    40    18    40 1
    41    18    41 1
    42    18    42 1
    43    19    43 1
    44    19    44 1
    45    19    45 1
    46    20    46 1
    47    20    47 1
    48    20    48 1
    49    21    49 1
    50    21    50 1
    51    21    51 1
@<TRIPOS>SUBSTRUCTURE
     1 RTL         1 TEMP              0 ****  ****    0 ROOT
