@<TRIPOS>MOLECULE
RTL
   51    51     1     0     0
SMALL
bcc


@<TRIPOS>ATOM
      1 C1         -0.2130   -0.2390    0.1050 c3        1 RTL     -0.004800
      2 C2          1.2980   -0.3050    0.3470 c3        1 RTL     -0.070400
      3 C3          1.7140    0.4270    1.6000 c3        1 RTL     -0.076400
      4 C4          1.0390   -0.1770    2.8110 c3        1 RTL     -0.042200
      5 C5         -0.4190   -0.4010    2.6050 c2        1 RTL     -0.098400
      6 C6         -0.9940   -0.4330    1.3830 ce        1 RTL     -0.086200
      7 C7         -2.4270   -0.6480    1.2000 ce        1 RTL     -0.111000
      8 C8         -3.3800    0.0450    1.8460 cf        1 RTL     -0.136000
      9 C9         -4.8080   -0.1540    1.6610 cf        1 RTL     -0.067200
     10 C10        -5.7310    0.2640    2.5550 ce        1 RTL     -0.135000
     11 C11        -5.4480    0.8970    3.8210 ce        1 RTL     -0.123000
     12 C12        -6.3520    1.5120    4.6020 cf        1 RTL     -0.121000
     13 C13        -7.7680    1.7040    4.3150 cf        1 RTL     -0.088200
     14 C14        -8.6910    1.4310    5.2550 c2        1 RTL     -0.165200
     15 C15       -10.1470    1.6220    5.0310 c3        1 RTL      0.163600
     16 O1        -10.8240    1.2350    6.2200 oh        1 RTL     -0.598800
     17 C16        -0.5620   -1.3270   -0.9100 c3        1 RTL     -0.085100
     18 C17        -0.5770    1.1180   -0.4920 c3        1 RTL     -0.085100
     19 C18        -1.1730   -0.6090    3.8670 c3        1 RTL     -0.064900
     20 C19        -5.2380   -0.8440    0.4160 c3        1 RTL     -0.061900
     21 C20        -8.1480    2.2430    2.9850 c3        1 RTL     -0.061900
     22 H21         1.6070   -1.3810    0.4310 hc        1 RTL      0.042200
     23 H22         1.8280    0.1300   -0.5400 hc        1 RTL      0.042200
     24 H31         1.4430    1.5130    1.5170 hc        1 RTL      0.042200
     25 H32         2.8270    0.3690    1.7210 hc        1 RTL      0.042200
     26 H41         1.5180   -1.1650    3.0580 hc        1 RTL      0.048700
     27 H42         1.1900    0.4940    3.6990 hc        1 RTL      0.048700
     28 H7         -2.6960   -1.4320    0.4700 ha        1 RTL      0.129000
     29 H8         -3.0910    0.8310    2.5660 ha        1 RTL      0.129000
     30 H10        -6.8030    0.1030    2.3340 ha        1 RTL      0.128000
     31 H11        -4.4020    0.8380    4.1740 ha        1 RTL      0.124000
     32 H12        -6.0280    1.9190    5.5770 ha        1 RTL      0.126000
     33 H14        -8.4120    1.0410    6.2470 ha        1 RTL      0.148000
     34 H151      -10.5000    0.9910    4.1680 h1        1 RTL      0.030200
     35 H152      -10.3710    2.7010    4.7980 h1        1 RTL      0.030200
     36 HO1       -11.7640    1.3610    6.0500 ho        1 RTL      0.400000
     37 H161       -0.5290   -2.3340   -0.4310 hc        1 RTL      0.036200
     38 H162       -1.5810   -1.1610   -1.3340 hc        1 RTL      0.036200
     39 H163        0.1710   -1.3060   -1.7520 hc        1 RTL      0.036200
     40 H171       -1.6820    1.1900   -0.6360 hc        1 RTL      0.036200
     41 H172       -0.0760    1.2470   -1.4820 hc        1 RTL      0.036200
     42 H173       -0.2520    1.9430    0.1840 hc        1 RTL      0.036200
     43 H181       -0.5480   -1.1710    4.6050 hc        1 RTL      0.043367
     44 H182       -1.4390    0.3810    4.3180 hc        1 RTL      0.043367
     45 H183       -2.1180   -1.1810    3.6960 hc        1 RTL      0.043367
     46 H191       -6.3430   -0.7700    0.2670 hc        1 RTL      0.043367
     47 H192       -4.9650   -1.9290    0.4680 hc        1 RTL      0.043367
     48 H193       -4.7300   -0.3960   -0.4730 hc        1 RTL      0.043367
     49 H201       -8.7980    1.5120    2.4410 hc        1 RTL      0.044033
     50 H202       -8.7240    3.1950    3.1060 hc        1 RTL      0.044033
     51 H203       -7.2470    2.4520    2.3580 hc        1 RTL      0.044033
@<TRIPOS>BOND
     1    1    2 1   
     2    1    6 1   
     3    1   17 1   
     4    1   18 1   
     5    2    3 1   
     6    2   22 1   
     7    2   23 1   
     8    3    4 1   
     9    3   24 1   
    10    3   25 1   
    11    4    5 1   
    12    4   26 1   
    13    4   27 1   
    14    5    6 2   
    15    5   19 1   
    16    6    7 1   
    17    7    8 2   
    18    7   28 1   
    19    8    9 1   
    20    8   29 1   
    21    9   10 2   
    22    9   20 1   
    23   10   11 1   
    24   10   30 1   
    25   11   12 2   
    26   11   31 1   
    27   12   13 1   
    28   12   32 1   
    29   13   14 2   
    30   13   21 1   
    31   14   15 1   
    32   14   33 1   
    33   15   16 1   
    34   15   34 1   
    35   15   35 1   
    36   16   36 1   
    37   17   37 1   
    38   17   38 1   
    39   17   39 1   
    40   18   40 1   
    41   18   41 1   
    42   18   42 1   
    43   19   43 1   
    44   19   44 1   
    45   19   45 1   
    46   20   46 1   
    47   20   47 1   
    48   20   48 1   
    49   21   49 1   
    50   21   50 1   
    51   21   51 1   
@<TRIPOS>SUBSTRUCTURE
     1 RTL         1 TEMP              0 ****  ****    0 ROOT
