@<TRIPOS>MOLECULE
RTM
   48    50     1     0     0
SMALL
bcc


@<TRIPOS>ATOM
      1 N1           0.0000     0.0000     0.0000 nb         1 RTM      -0.585000
      2 N3          -2.6930    -2.5690    -5.6610 n          1 RTM      -0.154800
      3 C4           3.4470     0.0000    -1.2190 ca         1 RTM      -0.081000
      4 C5           2.0440     0.0010    -1.2270 ca         1 RTM      -0.153300
      5 C6           1.3370     0.0000     0.0000 ca         1 RTM       0.380600
      6 C7          -0.6830    -0.0000    -1.1260 ca         1 RTM       0.507200
      7 C8          -0.0420     0.0000    -2.3730 ca         1 RTM      -0.215600
      8 C10         -0.8560     0.0010    -3.6410 c3         1 RTM       0.052900
      9 C13         -2.4820    -3.8180    -4.9260 c3         1 RTM       0.072300
     10 C15         -2.8300    -3.4950    -7.9200 c3         1 RTM      -0.043400
     11 C17         -5.0740    -3.9880    -8.9040 c3         1 RTM      -0.027400
     12 C16         -3.6570    -3.4940    -9.2070 c3         1 RTM      -0.018400
     13 C18         -5.7270    -3.0600    -7.8770 c3         1 RTM      -0.018400
     14 C19         -4.9000    -3.0610    -6.5900 c3         1 RTM      -0.043400
     15 C14         -3.4840    -2.5680    -6.8940 c3         1 RTM       0.019700
     16 C12         -2.1570    -1.4190    -5.2020 c          1 RTM       0.588100
     17 O1          -2.3320    -0.3850    -5.8120 o          1 RTM      -0.651100
     18 C11         -1.3430    -1.4190    -3.9350 c3         1 RTM      -0.100400
     19 C9           1.3190     0.0000    -2.4370 ca         1 RTM      -0.051000
     20 C1           4.1150     0.0010    -0.0320 ca         1 RTM      -0.101000
     21 C2           3.4220    -0.0000     1.1770 ca         1 RTM      -0.095000
     22 C3           2.0610     0.0000     1.2060 ca         1 RTM      -0.143300
     23 N2          -2.0690    -0.0000    -1.0770 nv         1 RTM      -0.651500
     24 H4           3.9970     0.0010    -2.1530 ha         1 RTM       0.106000
     25 H10         -1.7090     0.6570    -3.5220 hc         1 RTM       0.034700
     26 H10A        -0.2440     0.3500    -4.4630 hc         1 RTM       0.034700
     27 H13         -2.9300    -4.6390    -5.4720 h1         1 RTM       0.011367
     28 H13A        -2.9410    -3.7430    -3.9470 h1         1 RTM       0.011367
     29 H13B        -1.4190    -3.9970    -4.8140 h1         1 RTM       0.011367
     30 H15         -1.8290    -3.1430    -8.1350 hc         1 RTM       0.019200
     31 H15A        -2.7870    -4.5010    -7.5200 hc         1 RTM       0.019200
     32 H17         -5.0260    -4.9930    -8.5020 hc         1 RTM       0.013700
     33 H17A        -5.6590    -3.9850    -9.8150 hc         1 RTM       0.013700
     34 H16         -3.7040    -2.4870    -9.6040 hc         1 RTM       0.016700
     35 H16A        -3.1940    -4.1530    -9.9320 hc         1 RTM       0.016700
     36 H18         -5.7700    -2.0550    -8.2770 hc         1 RTM       0.016700
     37 H18A        -6.7290    -3.4120    -7.6610 hc         1 RTM       0.016700
     38 H19         -5.3630    -2.4020    -5.8650 hc         1 RTM       0.019200
     39 H19A        -4.8530    -4.0680    -6.1930 hc         1 RTM       0.019200
     40 H14         -3.5330    -1.5630    -7.2970 h1         1 RTM       0.076700
     41 H11         -0.4900    -2.0760    -4.0540 hc         1 RTM       0.033700
     42 H11A        -1.9550    -1.7690    -3.1120 hc         1 RTM       0.033700
     43 H9           1.8310     0.0010    -3.3910 ha         1 RTM       0.115000
     44 H1           5.1980     0.0010    -0.0270 ha         1 RTM       0.102000
     45 H2           3.9750     0.0000     2.1080 ha         1 RTM       0.102000
     46 H3           1.5370    -0.0010     2.1540 ha         1 RTM       0.117000
     47 HN2         -2.5750     0.8490    -1.2340 hn         1 RTM       0.277300
     48 HN2A        -2.5600    -0.8350    -0.8250 hn         1 RTM       0.277300
@<TRIPOS>BOND
     1     1     5 ar  
     2     1     6 ar  
     3     2     9 1   
     4     2    15 1   
     5     2    16 1   
     6     3     4 ar  
     7     3    20 ar  
     8     3    24 1   
     9     4     5 ar  
    10     4    19 ar  
    11     5    22 ar  
    12     6     7 ar  
    13     6    23 1   
    14     7     8 1   
    15     7    19 ar  
    16     8    18 1   
    17     8    25 1   
    18     8    26 1   
    19     9    27 1   
    20     9    28 1   
    21     9    29 1   
    22    10    12 1   
    23    10    15 1   
    24    10    30 1   
    25    10    31 1   
    26    11    12 1   
    27    11    13 1   
    28    11    32 1   
    29    11    33 1   
    30    12    34 1   
    31    12    35 1   
    32    13    14 1   
    33    13    36 1   
    34    13    37 1   
    35    14    15 1   
    36    14    38 1   
    37    14    39 1   
    38    15    40 1   
    39    16    17 2   
    40    16    18 1   
    41    18    41 1   
    42    18    42 1   
    43    19    43 1   
    44    20    21 ar  
    45    20    44 1   
    46    21    22 ar  
    47    21    45 1   
    48    22    46 1   
    49    23    47 1   
    50    23    48 1   
@<TRIPOS>SUBSTRUCTURE
     1 RTM         1 TEMP              0 ****  ****    0 ROOT
