@<TRIPOS>MOLECULE
molecule
   48    50     1     0     0
SMALL
bcc


@<TRIPOS>ATOM
      1 N1           0.0000     0.0000     0.0000 nb         1 RTM      -0.708000
      2 N3          -2.6930    -2.5690    -5.6610 n          1 RTM      -0.492800
      3 C4           3.4470     0.0000    -1.2190 ca         1 RTM      -0.108000
      4 C5           2.0440     0.0010    -1.2270 ca         1 RTM      -0.162300
      5 C6           1.3370     0.0000     0.0000 ca         1 RTM       0.430600
      6 C7          -0.6830    -0.0000    -1.1260 ca         1 RTM       0.691200
      7 C8          -0.0420     0.0000    -2.3730 ca         1 RTM      -0.215600
      8 C10         -0.8560     0.0010    -3.6410 c3         1 RTM      -0.009100
      9 C13         -2.4820    -3.8180    -4.9260 c3         1 RTM       0.093300
     10 C15         -2.8300    -3.4950    -7.9200 c3         1 RTM      -0.093400
     11 C17         -5.0740    -3.9880    -8.9040 c3         1 RTM      -0.083400
     12 C16         -3.6570    -3.4940    -9.2070 c3         1 RTM      -0.078400
     13 C18         -5.7270    -3.0600    -7.8770 c3         1 RTM      -0.078400
     14 C19         -4.9000    -3.0610    -6.5900 c3         1 RTM      -0.093400
     15 C14         -3.4840    -2.5680    -6.8940 c3         1 RTM       0.112700
     16 C12         -2.1570    -1.4190    -5.2020 c          1 RTM       0.661100
     17 O1          -2.3320    -0.3850    -5.8120 o          1 RTM      -0.614100
     18 C11         -1.3430    -1.4190    -3.9350 c3         1 RTM      -0.149400
     19 C9           1.3190     0.0000    -2.4370 ca         1 RTM      -0.076000
     20 C1           4.1150     0.0010    -0.0320 ca         1 RTM      -0.131000
     21 C2           3.4220    -0.0000     1.1770 ca         1 RTM      -0.120000
     22 C3           2.0610     0.0000     1.2060 ca         1 RTM      -0.167300
     23 N2          -2.0690    -0.0000    -1.0770 nv         1 RTM      -1.078500
     24 H4           3.9970     0.0010    -2.1530 ha         1 RTM       0.132000
     25 H10         -1.7090     0.6570    -3.5220 hc         1 RTM       0.065200
     26 H10A        -0.2440     0.3500    -4.4630 hc         1 RTM       0.065200
     27 H13         -2.9300    -4.6390    -5.4720 h1         1 RTM       0.039033
     28 H13A        -2.9410    -3.7430    -3.9470 h1         1 RTM       0.039033
     29 H13B        -1.4190    -3.9970    -4.8140 h1         1 RTM       0.039033
     30 H15         -1.8290    -3.1430    -8.1350 hc         1 RTM       0.045200
     31 H15A        -2.7870    -4.5010    -7.5200 hc         1 RTM       0.045200
     32 H17         -5.0260    -4.9930    -8.5020 hc         1 RTM       0.041700
     33 H17A        -5.6590    -3.9850    -9.8150 hc         1 RTM       0.041700
     34 H16         -3.7040    -2.4870    -9.6040 hc         1 RTM       0.045200
     35 H16A        -3.1940    -4.1530    -9.9320 hc         1 RTM       0.045200
     36 H18         -5.7700    -2.0550    -8.2770 hc         1 RTM       0.045200
     37 H18A        -6.7290    -3.4120    -7.6610 hc         1 RTM       0.045200
     38 H19         -5.3630    -2.4020    -5.8650 hc         1 RTM       0.045200
     39 H19A        -4.8530    -4.0680    -6.1930 hc         1 RTM       0.045200
     40 H14         -3.5330    -1.5630    -7.2970 h1         1 RTM       0.096700
     41 H11         -0.4900    -2.0760    -4.0540 hc         1 RTM       0.063200
     42 H11A        -1.9550    -1.7690    -3.1120 hc         1 RTM       0.063200
     43 H9           1.8310     0.0010    -3.3910 ha         1 RTM       0.142000
     44 H1           5.1980     0.0010    -0.0270 ha         1 RTM       0.130000
     45 H2           3.9750     0.0000     2.1080 ha         1 RTM       0.132000
     46 H3           1.5370    -0.0010     2.1540 ha         1 RTM       0.148000
     47 HN2         -2.5750     0.8490    -1.2340 hn         1 RTM       0.436800
     48 HN2A        -2.5600    -0.8350    -0.8250 hn         1 RTM       0.436800
@<TRIPOS>BOND
     1     6     1 ar
     2     1     5 ar
     3    16     2 1
     4    15     2 1
     5     2     9 1
     6     4     3 ar
     7     3    20 ar
     8     3    24 1
     9     5     4 ar
    10    19     4 ar
    11     5    22 ar
    12    23     6 1
    13     6     7 ar
    14     8     7 1
    15     7    19 ar
    16    18     8 1
    17     8    25 1
    18     8    26 1
    19     9    27 1
    20     9    28 1
    21     9    29 1
    22    15    10 1
    23    12    10 1
    24    10    30 1
    25    10    31 1
    26    13    11 1
    27    11    12 1
    28    11    32 1
    29    11    33 1
    30    12    34 1
    31    12    35 1
    32    13    14 1
    33    13    36 1
    34    13    37 1
    35    14    15 1
    36    14    38 1
    37    14    39 1
    38    15    40 1
    39    17    16 2
    40    16    18 1
    41    18    41 1
    42    18    42 1
    43    19    43 1
    44    21    20 ar
    45    20    44 1
    46    22    21 ar
    47    21    45 1
    48    22    46 1
    49    23    47 1
    50    23    48 1
@<TRIPOS>SUBSTRUCTURE
     1 RTM         1 TEMP              0 ****  ****    0 ROOT
