@<TRIPOS>MOLECULE
molecule
   58    61     1     0     0
SMALL
bcc


@<TRIPOS>ATOM
      1 C4           0.0000     0.0000     0.0000 ca         1 RTN       0.469600
      2 C5           1.4160     0.0000     0.0000 ca         1 RTN      -0.199300
      3 C6           2.1120     0.0000     1.2170 ca         1 RTN      -0.082000
      4 C8          -0.0300    -0.0020    -2.3140 ca         1 RTN       0.714200
      5 C10          2.1030    -0.0020    -1.2320 ca         1 RTN      -0.044000
      6 C13          3.8380    -0.9040     5.1230 ca         1 RTN      -0.134000
      7 C15          2.4810     0.9210     5.8870 ca         1 RTN      -0.127000
      8 C17          0.7000     1.9270     4.4450 c3         1 RTN      -0.050800
      9 C20          2.7670    -1.4120    -5.6300 c          1 RTN       0.654100
     10 C22          3.5700    -2.5550    -7.6260 c3         1 RTN       0.115700
     11 C24          4.8390    -3.9430    -9.2720 c3         1 RTN      -0.076900
     12 C26          3.2700    -2.1730   -10.0780 c3         1 RTN      -0.076900
     13 C23          4.1360    -3.9470    -7.9130 c3         1 RTN      -0.092900
     14 C25          3.8360    -3.5650   -10.3640 c3         1 RTN      -0.083400
     15 C27          2.5670    -2.1770    -8.7190 c3         1 RTN      -0.092900
     16 N21          2.8960    -2.5590    -6.3260 ns         1 RTN      -0.582900
     17 O29          3.2080    -0.3760    -6.0810 o          1 RTN      -0.614100
     18 C19          2.0740    -1.4170    -4.2910 c3         1 RTN      -0.159400
     19 C9           1.3700    -0.0020    -2.3800 ca         1 RTN      -0.256600
     20 N7          -0.6670    -0.0070    -1.1600 nb         1 RTN      -0.766000
     21 N28         -0.7640    -0.0090    -3.4910 nv         1 RTN      -1.018500
     22 C3          -0.6910     0.0010     1.2260 ca         1 RTN      -0.187300
     23 C2          -0.0010     0.0030     2.3960 ca         1 RTN      -0.096000
     24 C1           1.4030     0.0010     2.4050 cp         1 RTN      -0.060000
     25 C11          2.1310     0.0020     3.6980 cp         1 RTN      -0.038000
     26 C12          3.1600    -0.9130     3.9200 ca         1 RTN      -0.115000
     27 C14          3.4970     0.0080     6.1050 ca         1 RTN      -0.125000
     28 C16          1.8010     0.9250     4.6870 ca         1 RTN      -0.069300
     29 H6           3.1950    -0.0010     1.2270 ha         1 RTN       0.136000
     30 H10          3.1860    -0.0020    -1.2650 ha         1 RTN       0.141000
     31 H13          4.6360    -1.6150     5.2990 ha         1 RTN       0.129000
     32 H15          2.2190     1.6330     6.6600 ha         1 RTN       0.131000
     33 H17          0.7420     2.2700     3.4190 hc         1 RTN       0.046033
     34 H17A         0.8270     2.7710     5.1130 hc         1 RTN       0.046033
     35 H17B        -0.2600     1.4610     4.6310 hc         1 RTN       0.046033
     36 H22          4.3790    -1.8340    -7.6170 h1         1 RTN       0.080700
     37 H24          5.6450    -3.2190    -9.2570 hc         1 RTN       0.045450
     38 H24A         5.2360    -4.9300    -9.4740 hc         1 RTN       0.045450
     39 H26          4.0790    -1.4520   -10.0620 hc         1 RTN       0.045450
     40 H26A         2.5590    -1.9080   -10.8500 hc         1 RTN       0.045450
     41 H23          4.8470    -4.2120    -7.1400 hc         1 RTN       0.047200
     42 H23A         3.3270    -4.6680    -7.9280 hc         1 RTN       0.047200
     43 H25          4.3360    -3.5600   -11.3250 hc         1 RTN       0.042200
     44 H25A         3.0280    -4.2860   -10.3760 hc         1 RTN       0.042200
     45 H27          1.7610    -2.9010    -8.7330 hc         1 RTN       0.047200
     46 H27A         2.1700    -1.1900    -8.5160 hc         1 RTN       0.047200
     47 HN21         2.5880    -3.4230    -5.9260 hn         1 RTN       0.312500
     48 H19          1.0560    -1.7660    -4.4130 hc         1 RTN       0.065200
     49 H19A         2.6030    -2.0760    -3.6130 hc         1 RTN       0.065200
     50 H18          3.0810     0.3500    -3.5970 hc         1 RTN       0.062700
     51 H18A         1.5340     0.6610    -4.3970 hc         1 RTN       0.062700
     52 HN28        -0.3410     0.2940    -4.3460 hn         1 RTN       0.442300
     53 HN2A        -1.7240    -0.2920    -3.4800 hn         1 RTN       0.442300
     54 H3          -1.7740     0.0020     1.2360 ha         1 RTN       0.147000
     55 H2          -0.5410     0.0040     3.3350 ha         1 RTN       0.138000
     56 H12          3.4270    -1.6280     3.1520 ha         1 RTN       0.133000
     57 H14          4.0300     0.0100     7.0480 ha         1 RTN       0.128000
     58 C18          2.0630     0.0020    -3.7190 c3         1 RTN      -0.011100
@<TRIPOS>BOND
     1    20     1 ar
     2     1    22 ar
     3     1     2 ar
     4     5     2 ar
     5     2     3 ar
     6     3    24 ar
     7     3    29 1
     8    21     4 1
     9     4    20 ar
    10     4    19 ar
    11    19     5 ar
    12     5    30 1
    13    26     6 ar
    14     6    27 ar
    15     6    31 1
    16    28     7 ar
    17     7    27 ar
    18     7    32 1
    19     8    28 1
    20     8    33 1
    21     8    34 1
    22     8    35 1
    23    18     9 1
    24    16     9 1
    25     9    17 2
    26    16    10 1
    27    10    13 1
    28    10    15 1
    29    10    36 1
    30    13    11 1
    31    11    14 1
    32    11    37 1
    33    11    38 1
    34    15    12 1
    35    12    14 1
    36    12    39 1
    37    12    40 1
    38    13    41 1
    39    13    42 1
    40    14    43 1
    41    14    44 1
    42    15    45 1
    43    15    46 1
    44    16    47 1
    45    58    18 1
    46    18    48 1
    47    18    49 1
    48    58    19 1
    49    58    50 1
    50    58    51 1
    51    21    52 1
    52    21    53 1
    53    22    23 ar
    54    22    54 1
    55    23    24 ar
    56    23    55 1
    57    24    25 1
    58    25    28 ar
    59    25    26 ar
    60    26    56 1
    61    27    57 1
@<TRIPOS>SUBSTRUCTURE
     1 RTN         1 TEMP              0 ****  ****    0 ROOT
