@<TRIPOS>MOLECULE
molecule
   49    51     1     0     0
SMALL
bcc


@<TRIPOS>ATOM
      1 C39          0.0000     0.0000     0.0000 c3         1 RTX      -0.094100
      2 C36          1.5300     0.0000     0.0000 c3         1 RTX       0.157300
      3 N33          2.0200     0.0000     1.3850 n3         1 RTX      -0.732600
      4 C37          1.6710    -1.2530     2.0670 c3         1 RTX       0.157300
      5 C45          1.8280    -1.0720     3.5780 c3         1 RTX      -0.094100
      6 C30          3.4680     0.2390     1.4310 c3         1 RTX       0.161800
      7 C27          3.7500     1.7210     1.1720 c3         1 RTX      -0.080400
      8 C24          5.2470     1.9920     1.3420 c3         1 RTX      -0.110400
      9 C1           5.5280     3.4740     1.0840 c3         1 RTX       0.063300
     10 N2           6.9600     3.7340     1.2460 na         1 RTX      -0.201100
     11 C11          7.8460     3.6270     0.1620 ca         1 RTX      -0.030600
     12 C12          7.3640     3.5560    -1.1340 ca         1 RTX      -0.162000
     13 C13          8.2500     3.4550    -2.1940 ca         1 RTX       0.037400
     14 Cl1          7.6500     3.3670    -3.8200 cl         1 RTX      -0.106400
     15 C14          9.6120     3.4250    -1.9560 ca         1 RTX      -0.132000
     16 C15         10.0970     3.4940    -0.6630 ca         1 RTX      -0.176300
     17 C10          9.2180     3.5940     0.4040 ca         1 RTX       0.307000
     18 O9           9.6950     3.6560     1.6740 os         1 RTX      -0.400800
     19 C8           8.8760     4.0550     2.6800 ca         1 RTX       0.304000
     20 C3           7.4940     4.1050     2.4920 ca         1 RTX      -0.043600
     21 C4           6.6640     4.5100     3.5210 ca         1 RTX      -0.160000
     22 C5           7.2070     4.8700     4.7430 ca         1 RTX      -0.117000
     23 C6           8.5750     4.8250     4.9320 ca         1 RTX      -0.137000
     24 C7           9.4100     4.4240     3.9040 ca         1 RTX      -0.182300
     25 H1          -0.3610     0.5270    -0.8750 hc         1 RTX       0.039033
     26 H2          -0.3610     0.4940     0.8940 hc         1 RTX       0.039033
     27 H3          -0.3610    -1.0210    -0.0190 hc         1 RTX       0.039033
     28 H4           1.8910     0.8850    -0.5110 h1         1 RTX       0.033200
     29 H5           1.8910    -0.8840    -0.5110 h1         1 RTX       0.033200
     30 H7           2.3280    -2.0440     1.7280 h1         1 RTX       0.033200
     31 H8           0.6440    -1.5140     1.8400 h1         1 RTX       0.033200
     32 H9           1.6850    -0.0290     3.8330 hc         1 RTX       0.039033
     33 H10          2.8220    -1.3840     3.8770 hc         1 RTX       0.039033
     34 H11          1.0900    -1.6750     4.0930 hc         1 RTX       0.039033
     35 H12          3.8480    -0.0360     2.4070 h1         1 RTX       0.036200
     36 H13          3.9570    -0.3600     0.6720 h1         1 RTX       0.036200
     37 H14          3.1910     2.3230     1.8770 hc         1 RTX       0.048200
     38 H15          3.4490     1.9740     0.1630 hc         1 RTX       0.048200
     39 H16          5.5470     1.7380     2.3510 hc         1 RTX       0.054200
     40 H17          5.8060     1.3900     0.6360 hc         1 RTX       0.054200
     41 H18          5.2260     3.7280     0.0750 h1         1 RTX       0.056700
     42 H19          4.9690     4.0750     1.7910 h1         1 RTX       0.056700
     43 H20          6.3030     3.6610    -1.3240 ha         1 RTX       0.151000
     44 H21         10.3020     3.3460    -2.7870 ha         1 RTX       0.149000
     45 H22         11.1650     3.4700    -0.4840 ha         1 RTX       0.153000
     46 H23          5.5910     4.5450     3.3720 ha         1 RTX       0.139000
     47 H24          6.5590     5.1850     5.5520 ha         1 RTX       0.135000
     48 H25          8.9970     5.1080     5.8890 ha         1 RTX       0.137000
     49 H26         10.4820     4.3910     4.0590 ha         1 RTX       0.147000
@<TRIPOS>BOND
     1    16    15 ar
     2    16    17 ar
     3    18    17 1
     4    18    19 1
     5    24    19 ar
     6    24    23 ar
     7    15    13 ar
     8    17    11 ar
     9    19    20 ar
    10    23    22 ar
    11    13    14 1
    12    13    12 ar
    13    11    12 ar
    14    11    10 1
    15    20    21 ar
    16    20    10 1
    17    22    21 ar
    18    10     9 1
    19     9     8 1
    20     8     7 1
    21     7     6 1
    22     4     5 1
    23     4     3 1
    24     6     3 1
    25     3     2 1
    26     2     1 1
    27     1    25 1
    28     1    26 1
    29     1    27 1
    30     2    28 1
    31     2    29 1
    32     4    30 1
    33     4    31 1
    34     5    32 1
    35     5    33 1
    36     5    34 1
    37     6    35 1
    38     6    36 1
    39     7    37 1
    40     7    38 1
    41     8    39 1
    42     8    40 1
    43     9    41 1
    44     9    42 1
    45    12    43 1
    46    15    44 1
    47    16    45 1
    48    21    46 1
    49    22    47 1
    50    23    48 1
    51    24    49 1
@<TRIPOS>SUBSTRUCTURE
     1 RTX         1 TEMP              0 ****  ****    0 ROOT
