@<TRIPOS>MOLECULE
RTX
   49    51     1     0     0
SMALL
bcc


@<TRIPOS>ATOM
      1 C39          0.0000     0.0000     0.0000 c3         1 RTX      -0.002100
      2 C36          1.5300     0.0000     0.0000 c3         1 RTX       0.144300
      3 N33          2.0200     0.0000     1.3850 n3         1 RTX      -0.541600
      4 C37          1.6710    -1.2530     2.0670 c3         1 RTX       0.144300
      5 C45          1.8280    -1.0720     3.5780 c3         1 RTX      -0.002100
      6 C30          3.4680     0.2390     1.4310 c3         1 RTX       0.144800
      7 C27          3.7500     1.7210     1.1720 c3         1 RTX      -0.029400
      8 C24          5.2470     1.9920     1.3420 c3         1 RTX      -0.054400
      9 C1           5.5280     3.4740     1.0840 c3         1 RTX      -0.026700
     10 N2           6.9600     3.7340     1.2460 na         1 RTX       0.204900
     11 C11          7.8460     3.6270     0.1620 ca         1 RTX      -0.173600
     12 C12          7.3640     3.5560    -1.1340 ca         1 RTX      -0.146000
     13 C13          8.2500     3.4550    -2.1940 ca         1 RTX      -0.022600
     14 Cl1          7.6500     3.3670    -3.8200 cl         1 RTX      -0.029400
     15 C14          9.6120     3.4250    -1.9560 ca         1 RTX      -0.108000
     16 C15         10.0970     3.4940    -0.6630 ca         1 RTX      -0.155300
     17 C10          9.2180     3.5940     0.4040 ca         1 RTX       0.309000
     18 O9           9.6950     3.6560     1.6740 os         1 RTX      -0.363800
     19 C8           8.8760     4.0550     2.6800 ca         1 RTX       0.309000
     20 C3           7.4940     4.1050     2.4920 ca         1 RTX      -0.188600
     21 C4           6.6640     4.5100     3.5210 ca         1 RTX      -0.139000
     22 C5           7.2070     4.8700     4.7430 ca         1 RTX      -0.091000
     23 C6           8.5750     4.8250     4.9320 ca         1 RTX      -0.106000
     24 C7           9.4100     4.4240     3.9040 ca         1 RTX      -0.164300
     25 H1          -0.3610     0.5270    -0.8750 hc         1 RTX       0.006867
     26 H2          -0.3610     0.4940     0.8940 hc         1 RTX       0.006867
     27 H3          -0.3610    -1.0210    -0.0190 hc         1 RTX       0.006867
     28 H4           1.8910     0.8850    -0.5110 h1         1 RTX       0.010200
     29 H5           1.8910    -0.8840    -0.5110 h1         1 RTX       0.010200
     30 H7           2.3280    -2.0440     1.7280 h1         1 RTX       0.010200
     31 H8           0.6440    -1.5140     1.8400 h1         1 RTX       0.010200
     32 H9           1.6850    -0.0290     3.8330 hc         1 RTX       0.006867
     33 H10          2.8220    -1.3840     3.8770 hc         1 RTX       0.006867
     34 H11          1.0900    -1.6750     4.0930 hc         1 RTX       0.006867
     35 H12          3.8480    -0.0360     2.4070 h1         1 RTX       0.013700
     36 H13          3.9570    -0.3600     0.6720 h1         1 RTX       0.013700
     37 H14          3.1910     2.3230     1.8770 hc         1 RTX       0.021700
     38 H15          3.4490     1.9740     0.1630 hc         1 RTX       0.021700
     39 H16          5.5470     1.7380     2.3510 hc         1 RTX       0.025700
     40 H17          5.8060     1.3900     0.6360 hc         1 RTX       0.025700
     41 H18          5.2260     3.7280     0.0750 h1         1 RTX       0.034700
     42 H19          4.9690     4.0750     1.7910 h1         1 RTX       0.034700
     43 H20          6.3030     3.6610    -1.3240 ha         1 RTX       0.129000
     44 H21         10.3020     3.3460    -2.7870 ha         1 RTX       0.117000
     45 H22         11.1650     3.4700    -0.4840 ha         1 RTX       0.119000
     46 H23          5.5910     4.5450     3.3720 ha         1 RTX       0.119000
     47 H24          6.5590     5.1850     5.5520 ha         1 RTX       0.105000
     48 H25          8.9970     5.1080     5.8890 ha         1 RTX       0.106000
     49 H26         10.4820     4.3910     4.0590 ha         1 RTX       0.116000
@<TRIPOS>BOND
     1     1     2 1   
     2     1    25 1   
     3     1    26 1   
     4     1    27 1   
     5     2     3 1   
     6     2    28 1   
     7     2    29 1   
     8     3     4 1   
     9     3     6 1   
    10     4     5 1   
    11     4    30 1   
    12     4    31 1   
    13     5    32 1   
    14     5    33 1   
    15     5    34 1   
    16     6     7 1   
    17     6    35 1   
    18     6    36 1   
    19     7     8 1   
    20     7    37 1   
    21     7    38 1   
    22     8     9 1   
    23     8    39 1   
    24     8    40 1   
    25     9    10 1   
    26     9    41 1   
    27     9    42 1   
    28    10    11 1   
    29    10    20 1   
    30    11    12 ar  
    31    11    17 ar  
    32    12    13 ar  
    33    12    43 1   
    34    13    14 1   
    35    13    15 ar  
    36    15    16 ar  
    37    15    44 1   
    38    16    17 ar  
    39    16    45 1   
    40    17    18 1   
    41    18    19 1   
    42    19    20 ar  
    43    19    24 ar  
    44    20    21 ar  
    45    21    22 ar  
    46    21    46 1   
    47    22    23 ar  
    48    22    47 1   
    49    23    24 ar  
    50    23    48 1   
    51    24    49 1   
@<TRIPOS>SUBSTRUCTURE
     1 RTX         1 TEMP              0 ****  ****    0 ROOT
