@<TRIPOS>MOLECULE
molecule
   40    40     1     0     0
SMALL
bcc


@<TRIPOS>ATOM
      1 C            1.4290     0.0000     0.0000 c3         1 RTY       0.078100
      2 N            1.4490    -2.4490    -0.0290 nz         1 RTY      -0.815600
      3 O            0.0000     0.0000     0.0000 oh         1 RTY      -0.549800
      4 C1           4.9160    -5.3680    -5.6190 c3         1 RTY       0.112400
      5 O1           6.4610    -8.6730    -7.6390 o          1 RTY      -0.839300
      6 C2           7.1380    -7.6760    -7.7170 c          1 RTY       0.892600
      7 C3           6.6950    -6.4090    -7.0320 c3         1 RTY      -0.184400
      8 C4           5.3660    -6.6550    -6.3150 c3         1 RTY      -0.061400
      9 C6           1.9390     0.0000     1.4420 c3         1 RTY      -0.060000
     10 CA           1.9390    -1.2490    -0.7220 c3         1 RTY       0.156500
     11 CB           1.4290    -1.2490    -2.1640 c3         1 RTY      -0.142100
     12 CG           2.0290    -2.4120    -2.9090 ca         1 RTY      -0.204300
     13 CZ           3.1330    -4.5480    -4.2780 ca         1 RTY       0.200100
     14 CD1          3.2320    -2.2600    -3.5730 ca         1 RTY      -0.096500
     15 CD2          1.3800    -3.6330    -2.9240 ca         1 RTY      -0.096500
     16 CE1          3.7850    -3.3250    -4.2580 ca         1 RTY      -0.185000
     17 CE2          1.9290    -4.7020    -3.6060 ca         1 RTY      -0.185000
     18 H            1.7900     0.8850    -0.5100 h1         1 RTY       0.092700
     19 HN           1.6030    -2.3520     0.9550 hn         1 RTY       0.456133
     20 HNA          0.4700    -2.5590    -0.2040 hn         1 RTY       0.456133
     21 HO           0.2950     0.7760    -0.4480 ho         1 RTY       0.437000
     22 H1           5.6650    -5.0680    -4.8970 h1         1 RTY       0.032200
     23 H1A          4.7900    -4.5850    -6.3560 h1         1 RTY       0.032200
     24 O2           8.2860    -7.6960    -8.4120 o          1 RTY      -0.839300
     25 H3           7.4450    -6.1080    -6.3100 hc         1 RTY       0.030200
     26 H3A          6.5690    -5.6250    -7.7690 hc         1 RTY       0.030200
     27 H4           4.6170    -6.9560    -7.0370 hc         1 RTY       0.066700
     28 H4A          5.4930    -7.4390    -5.5780 hc         1 RTY       0.066700
     29 Br1          1.4190     1.6800     2.3220 br         1 RTY      -0.076400
     30 H6           3.0190    -0.0890     1.4430 h1         1 RTY       0.077700
     31 H6A          1.5070    -0.8370     1.9780 h1         1 RTY       0.077700
     32 HA           3.0230    -1.2490    -0.7220 hx         1 RTY       0.092700
     33 HB           2.4800    -1.0860    -1.9580 hc         1 RTY       0.106700
     34 HBA          1.1480    -0.3400    -2.6820 hc         1 RTY       0.106700
     35 HD1          3.7420    -1.3040    -3.5570 ha         1 RTY       0.123000
     36 HD2          0.4400    -3.7520    -2.3980 ha         1 RTY       0.123000
     37 HE1          4.7280    -3.2040    -4.7770 ha         1 RTY       0.166500
     38 HE2          1.4190    -5.6580    -3.6160 ha         1 RTY       0.166500
     39 OH           3.6740    -5.5980    -4.9510 os         1 RTY      -0.299900
     40 HN3          1.9360    -3.2540    -0.3700 hn         1 RTY       0.456133
@<TRIPOS>BOND
     1     1     3 1
     2     1    18 1
     3     2    10 1
     4     2    19 1
     5     2    20 1
     6     3    21 1
     7     4    22 1
     8     4    23 1
     9     6     5 1
    10     6    24 1
    11     7     6 1
    12     7    25 1
    13     7    26 1
    14     8     4 1
    15     8     7 1
    16     8    27 1
    17     8    28 1
    18     9     1 1
    19     9    29 1
    20     9    30 1
    21     9    31 1
    22    10     1 1
    23    10    11 1
    24    10    32 1
    25    11    33 1
    26    11    34 1
    27    12    11 1
    28    12    15 ar
    29    39     4 1
    30    39    13 1
    31    13    17 ar
    32    14    12 ar
    33    14    35 1
    34    15    36 1
    35    16    13 ar
    36    16    14 ar
    37    16    37 1
    38    17    15 ar
    39    17    38 1
    40    40     2 1
@<TRIPOS>SUBSTRUCTURE
     1 RTY         1 TEMP              0 ****  ****    0 ROOT
