@<TRIPOS>MOLECULE
RTZ
   51    54     1     0     0
SMALL
bcc


@<TRIPOS>ATOM
      1 CAA          0.0000     0.0000     0.0000 c3         1 RTZ       0.176100
      2 CAB          4.1480     7.5880    -2.7040 c3         1 RTZ       0.109000
      3 CAC         -1.5250    -0.0930    -5.3850 ca         1 RTZ      -0.059000
      4 CAD         -1.8960     0.4470    -6.6020 ca         1 RTZ      -0.132000
      5 CAE          4.2760     0.0000     0.0000 c3         1 RTZ      -0.024400
      6 CAF          3.5220     0.0000     1.3340 c3         1 RTZ      -0.026400
      7 CAG          3.5220     0.8760    -1.0030 c3         1 RTZ      -0.036400
      8 CAH         -0.4650     0.4460    -4.6800 ca         1 RTZ      -0.171000
      9 CAI         -1.2070     1.5300    -7.1150 ca         1 RTZ      -0.033000
     10 CAJ          2.7080     5.9750    -4.6670 ca         1 RTZ      -0.164000
     11 CAK          2.0420     5.4300    -5.7480 ca         1 RTZ      -0.017000
     12 CAL          1.3300     1.2330    -2.1510 c3         1 RTZ      -0.087400
     13 CAM          2.0940    -0.5020     1.1060 c3         1 RTZ       0.156800
     14 CAN          1.9920     1.1490    -3.5280 c3         1 RTZ      -0.042700
     15 CAO          2.4270     3.9150    -3.4610 ca         1 RTZ      -0.148000
     16 CAP          2.0940     0.3490    -1.1620 c3         1 RTZ       0.136500
     17 CAQ          2.9000     5.2180    -3.5200 ca         1 RTZ       0.098900
     18 CAR          0.2360     1.5350    -5.1890 ca         1 RTZ      -0.054300
     19 CAS          1.7580     3.3620    -4.5480 ca         1 RTZ      -0.042300
     20 CAT         -0.1430     2.0780    -6.4130 ca         1 RTZ       0.052900
     21 CAU          1.5660     4.1270    -5.6940 ca         1 RTZ       0.046900
     22 NAV          1.4150     0.3700     0.1390 n3         1 RTZ      -0.535600
     23 NAW          1.3030     2.0480    -4.4560 na         1 RTZ       0.217900
     24 SAY          0.7130     3.4620    -7.0840 ss         1 RTZ      -0.357800
     25 HAA         -0.5640     0.8550    -0.3540 h1         1 RTZ       0.003367
     26 HAAA        -0.0930    -0.8130    -0.7100 h1         1 RTZ       0.003367
     27 HAAB        -0.3870    -0.3150     0.9620 h1         1 RTZ       0.003367
     28 HAB          4.6780     8.1160    -1.9210 h1         1 RTZ       0.037367
     29 HABA         4.7730     7.5280    -3.5860 h1         1 RTZ       0.037367
     30 HABB         3.2350     8.1200    -2.9440 h1         1 RTZ       0.037367
     31 HAC         -2.0660    -0.9410    -4.9830 ha         1 RTZ       0.102000
     32 HAD         -2.7270     0.0220    -7.1520 ha         1 RTZ       0.108000
     33 HAE          5.2720     0.3980     0.1490 hc         1 RTZ       0.013200
     34 HAEA         4.3370    -1.0130    -0.3800 hc         1 RTZ       0.013200
     35 HAF          4.0270    -0.6550     2.0330 hc         1 RTZ       0.021200
     36 HAFA         3.4910     1.0080     1.7300 hc         1 RTZ       0.021200
     37 HAG          4.0270     0.8440    -1.9610 hc         1 RTZ       0.026700
     38 HAGA         3.4900     1.8960    -0.6390 hc         1 RTZ       0.026700
     39 HAH         -0.1780     0.0190    -3.7270 ha         1 RTZ       0.125000
     40 HAI         -1.4990     1.9520    -8.0700 ha         1 RTZ       0.115000
     41 HAJ          3.0770     6.9930    -4.7140 ha         1 RTZ       0.120000
     42 HAK          1.8930     6.0210    -6.6440 ha         1 RTZ       0.116000
     43 HAL          0.3040     0.8930    -2.2210 hc         1 RTZ       0.043700
     44 HALA         1.3470     2.2600    -1.8040 hc         1 RTZ       0.043700
     45 HAM          2.1260    -1.5130     0.7190 h1         1 RTZ       0.007700
     46 HAMA         1.5540    -0.4860     2.0450 h1         1 RTZ       0.007700
     47 HAN          3.0320     1.4400    -3.4480 h1         1 RTZ       0.040700
     48 HANA         1.9290     0.1320    -3.8970 h1         1 RTZ       0.040700
     49 HAO          2.5780     3.3260    -2.5640 ha         1 RTZ       0.144000
     50 HAP          2.1270    -0.6690    -1.5330 h1         1 RTZ       0.009700
     51 SAX          3.7450     5.9120    -2.1380 ss         1 RTZ      -0.332000
@<TRIPOS>BOND
     1     1    22 1   
     2     1    25 1   
     3     1    26 1   
     4     1    27 1   
     5     2    28 1   
     6     2    29 1   
     7     2    30 1   
     8     2    51 1   
     9     3     4 ar  
    10     3     8 ar  
    11     3    31 1   
    12     4     9 ar  
    13     4    32 1   
    14     5     6 1   
    15     5     7 1   
    16     5    33 1   
    17     5    34 1   
    18     6    13 1   
    19     6    35 1   
    20     6    36 1   
    21     7    16 1   
    22     7    37 1   
    23     7    38 1   
    24     8    18 ar  
    25     8    39 1   
    26     9    20 ar  
    27     9    40 1   
    28    10    11 ar  
    29    10    17 ar  
    30    10    41 1   
    31    11    21 ar  
    32    11    42 1   
    33    12    14 1   
    34    12    16 1   
    35    12    43 1   
    36    12    44 1   
    37    13    22 1   
    38    13    45 1   
    39    13    46 1   
    40    14    23 1   
    41    14    47 1   
    42    14    48 1   
    43    15    17 ar  
    44    15    19 ar  
    45    15    49 1   
    46    16    22 1   
    47    16    50 1   
    48    17    51 1   
    49    18    20 ar  
    50    18    23 1   
    51    19    21 ar  
    52    19    23 1   
    53    20    24 1   
    54    21    24 1   
@<TRIPOS>SUBSTRUCTURE
     1 RTZ         1 TEMP              0 ****  ****    0 ROOT
