@<TRIPOS>MOLECULE
RU5
   41    44     1     0     0
SMALL
bcc


@<TRIPOS>ATOM
      1 C1           0.0000     0.0000     0.0000 c          1 RU5       0.358700
      2 N1           1.3480     0.0000     0.0000 nz         1 RU5       0.207600
      3 O1          -8.9670     0.0020     7.1760 os         1 RU5      -0.217200
      4 C2          -0.7380     0.0000     1.2790 ca         1 RU5      -0.222600
      5 C3          -2.1330     0.0010     1.2770 ca         1 RU5       0.085000
      6 N3          -4.1580     0.0000     2.8180 na         1 RU5       0.297700
      7 C4          -2.8170     0.0000     2.4790 ca         1 RU5      -0.328200
      8 N4          -3.0150    -0.0020     4.6890 nc         1 RU5      -0.513100
      9 C5          -4.2260    -0.0010     4.1840 cd         1 RU5       0.348400
     10 C6          -2.1060    -0.0020     3.6940 ca         1 RU5       0.129400
     11 C7          -0.7030    -0.0030     3.6770 ca         1 RU5      -0.019000
     12 C8          -0.0350    -0.0080     2.4910 ca         1 RU5      -0.170000
     13 C9          -5.4760    -0.0000     4.9720 ca         1 RU5      -0.167900
     14 ClA        -12.3600    -4.7740     6.9600 cl         1 RU5      -0.010400
     15 C10         -5.4230    -0.0010     6.3680 ca         1 RU5      -0.045500
     16 C11         -6.5900    -0.0010     7.1000 ca         1 RU5      -0.123500
     17 C12         -7.8190     0.0010     6.4510 ca         1 RU5       0.155100
     18 C13         -7.8760     0.0020     5.0630 ca         1 RU5      -0.123500
     19 C14         -6.7130     0.0070     4.3240 ca         1 RU5      -0.045500
     20 C15         -9.7540    -1.1050     7.1260 ca         1 RU5       0.133100
     21 C16         -9.3160    -2.2380     6.4540 ca         1 RU5      -0.157500
     22 C17        -10.1170    -3.3630     6.4040 ca         1 RU5      -0.055000
     23 C18        -11.3550    -3.3600     7.0240 ca         1 RU5      -0.068600
     24 C19        -11.7930    -2.2300     7.6940 ca         1 RU5      -0.055000
     25 C20        -10.9930    -1.1060     7.7500 ca         1 RU5      -0.157500
     26 OAB         -0.6090     0.0070    -1.0530 o          1 RU5      -0.458100
     27 HN1          1.6820    -0.8190     0.4690 hn         1 RU5       0.243800
     28 HN1A         1.6810     0.0030    -0.9440 hn         1 RU5       0.243800
     29 H3          -2.7500     0.0140     0.3870 ha         1 RU5       0.125000
     30 HN3         -4.9320     0.0020     2.1830 hn         1 RU5       0.146700
     31 H7          -0.1770     0.0070     4.6240 ha         1 RU5       0.132000
     32 H8           1.0100    -0.0170     2.7760 ha         1 RU5       0.120000
     33 H10         -4.4650    -0.0030     6.8750 ha         1 RU5       0.112500
     34 H11         -6.5500    -0.0020     8.1820 ha         1 RU5       0.131000
     35 H13         -8.8350     0.0080     4.5610 ha         1 RU5       0.131000
     36 H14         -6.7580     0.0080     3.2420 ha         1 RU5       0.112500
     37 H16         -8.3470    -2.2410     5.9700 ha         1 RU5       0.122000
     38 H17         -9.7760    -4.2480     5.8810 ha         1 RU5       0.117500
     39 H19        -12.7600    -2.2310     8.1810 ha         1 RU5       0.117500
     40 H20        -11.3360    -0.2230     8.2750 ha         1 RU5       0.122000
     41 H131         1.6820     0.8220     0.4620 hn         1 RU5       0.243800
@<TRIPOS>BOND
     1     1     2 1   
     2     1     4 1   
     3     1    26 2   
     4     2    27 1   
     5     2    28 1   
     6     2    41 1   
     7     3    17 1   
     8     3    20 1   
     9     4     5 ar  
    10     4    12 ar  
    11     5     7 ar  
    12     5    29 1   
    13     6     7 1   
    14     6     9 1   
    15     6    30 1   
    16     7    10 ar  
    17     8     9 2   
    18     8    10 1   
    19     9    13 1   
    20    10    11 ar  
    21    11    12 ar  
    22    11    31 1   
    23    12    32 1   
    24    13    15 ar  
    25    13    19 ar  
    26    14    23 1   
    27    15    16 ar  
    28    15    33 1   
    29    16    17 ar  
    30    16    34 1   
    31    17    18 ar  
    32    18    19 ar  
    33    18    35 1   
    34    19    36 1   
    35    20    21 ar  
    36    20    25 ar  
    37    21    22 ar  
    38    21    37 1   
    39    22    23 ar  
    40    22    38 1   
    41    23    24 ar  
    42    24    25 ar  
    43    24    39 1   
    44    25    40 1   
@<TRIPOS>SUBSTRUCTURE
     1 RU5         1 TEMP              0 ****  ****    0 ROOT
