@<TRIPOS>MOLECULE
molecule
   42    45     1     0     0
SMALL
bcc


@<TRIPOS>ATOM
      1 C1           0.0000     0.0000     0.0000 c          1 RU9       0.511700
      2 N1           1.3480     0.0000     0.0000 nz         1 RU9      -0.676400
      3 O1          -8.9690     0.0040     7.1720 os         1 RU9      -0.244200
      4 C2          -0.7380     0.0000     1.2770 ca         1 RU9      -0.232600
      5 C3          -2.1330     0.0000     1.2760 ca         1 RU9       0.013000
      6 N3          -4.1580     0.0010     2.8160 na         1 RU9      -0.246300
      7 C4          -2.8180     0.0000     2.4780 ca         1 RU9      -0.126200
      8 N4          -3.0160     0.0020     4.6880 nc         1 RU9      -0.602100
      9 C5          -4.2270     0.0010     4.1820 cd         1 RU9       0.558400
     10 C6          -2.1060     0.0010     3.6930 ca         1 RU9       0.171400
     11 C7          -0.7050     0.0010     3.6770 ca         1 RU9      -0.053000
     12 C8          -0.0360    -0.0050     2.4900 ca         1 RU9      -0.142000
     13 C9          -5.4770     0.0010     4.9700 ca         1 RU9      -0.161900
     14 C10         -5.4240     0.0020     6.3660 ca         1 RU9      -0.071500
     15 C11         -6.5920     0.0030     7.0970 ca         1 RU9      -0.146500
     16 C12         -7.8210     0.0030     6.4480 ca         1 RU9       0.157100
     17 C13         -7.8770     0.0030     5.0590 ca         1 RU9      -0.146500
     18 C14         -6.7140     0.0070     4.3210 ca         1 RU9      -0.071500
     19 C15         -9.2620     1.1120     7.9020 ca         1 RU9       0.137100
     20 C16         -8.4680     2.2450     7.7940 ca         1 RU9      -0.222000
     21 C17         -8.7650     3.3720     8.5350 ca         1 RU9      -0.078000
     22 C18         -9.8540     3.3740     9.3860 ca         1 RU9      -0.174000
     23 C19        -10.6520     2.2440     9.4980 ca         1 RU9       0.145100
     24 C20        -10.3590     1.1150     8.7500 ca         1 RU9      -0.174000
     25 OAB         -0.6070     0.0040    -1.0530 o          1 RU9      -0.440100
     26 OAC        -11.7220     2.2470    10.3350 oh         1 RU9      -0.513100
     27 H11N         1.6820     0.0030    -0.9440 hn         1 RU9       0.476133
     28 H12N         1.6820    -0.8190     0.4690 hn         1 RU9       0.476133
     29 H3          -2.6740    -0.1170     0.3440 ha         1 RU9       0.163000
     30 H8           1.0470    -0.0140     2.4840 ha         1 RU9       0.109000
     31 HA          -4.9320     0.0000     2.1810 hn         1 RU9       0.325700
     32 H7          -0.1530    -0.0030     4.6090 ha         1 RU9       0.171000
     33 H10         -4.4660     0.0020     6.8720 ha         1 RU9       0.145500
     34 H14         -6.7580     0.0070     3.2390 ha         1 RU9       0.145500
     35 H11         -6.5520     0.0030     8.1800 ha         1 RU9       0.163000
     36 H13         -8.8360     0.0070     4.5560 ha         1 RU9       0.163000
     37 H16         -7.6140     2.2460     7.1270 ha         1 RU9       0.137000
     38 H20        -10.9810     0.2310     8.8350 ha         1 RU9       0.159000
     39 H17         -8.1440     4.2550     8.4490 ha         1 RU9       0.139000
     40 H18        -10.0840     4.2580     9.9690 ha         1 RU9       0.150000
     41 HAC        -11.4640     1.9060    11.1760 ho         1 RU9       0.427000
     42 H131         1.6820     0.8140     0.4780 hn         1 RU9       0.476133
@<TRIPOS>BOND
     1     1     2 1
     2     1     4 1
     3     1    25 2
     4     3    16 1
     5     3    19 1
     6     4     5 ar
     7     4    12 ar
     8     5     7 ar
     9     6     7 1
    10     6     9 1
    11     7    10 ar
    12     8     9 2
    13     8    10 1
    14     9    13 1
    15    10    11 ar
    16    11    12 ar
    17    13    14 ar
    18    13    18 ar
    19    14    15 ar
    20    15    16 ar
    21    16    17 ar
    22    17    18 ar
    23    19    20 ar
    24    19    24 ar
    25    20    21 ar
    26    21    22 ar
    27    22    23 ar
    28    23    24 ar
    29    23    26 1
    30     2    27 1
    31     2    28 1
    32     5    29 1
    33    12    30 1
    34     6    31 1
    35    11    32 1
    36    14    33 1
    37    18    34 1
    38    15    35 1
    39    17    36 1
    40    20    37 1
    41    24    38 1
    42    21    39 1
    43    22    40 1
    44    26    41 1
    45    42     2 1
@<TRIPOS>SUBSTRUCTURE
     1 RU9         1 TEMP              0 ****  ****    0 ROOT
