@<TRIPOS>MOLECULE
molecule
   48    51     1     0     0
SMALL
bcc


@<TRIPOS>ATOM
      1 C1           0.0000     0.0000     0.0000 c3         1 RUF       0.106300
      2 N2           1.4640     0.0000     0.0000 n          1 RUF      -0.422300
      3 C3           2.1580     0.0000     1.2000 cc         1 RUF       0.519200
      4 N4           1.7810     0.0010     2.4800 nc         1 RUF      -0.763000
      5 C5           2.8430     0.0010     3.2600 cd         1 RUF       0.667400
      6 N6           2.8180     0.0010     4.6360 nh         1 RUF      -0.687300
      7 C7           3.2320    -1.3030     5.1710 c3         1 RUF       0.174300
      8 C8           3.2680    -1.2360     6.7000 c3         1 RUF       0.154300
      9 N9           1.9390    -0.8640     7.2020 n7         1 RUF      -0.820200
     10 C10          1.5230     0.4410     6.6680 c3         1 RUF       0.154300
     11 C11          1.4880     0.3750     5.1390 c3         1 RUF       0.174300
     12 N12          3.9660    -0.0000     2.4960 na         1 RUF      -0.134900
     13 C13          5.3500    -0.0010     2.9740 c3         1 RUF       0.094600
     14 C14          5.8650     1.4150     3.0250 ca         1 RUF      -0.119300
     15 C15          6.5310     1.9460     1.9370 ca         1 RUF      -0.089000
     16 C16          7.0030     3.2460     1.9830 ca         1 RUF      -0.135000
     17 C17          6.8110     4.0110     3.1160 ca         1 RUF      -0.108000
     18 C18          6.1450     3.4810     4.2060 ca         1 RUF      -0.132000
     19 C19          5.6670     2.1840     4.1580 ca         1 RUF       0.043400
     20 Cl20         4.8250     1.5180     5.5210 cl         1 RUF      -0.094400
     21 C21          3.5480    -0.0010     1.1710 cd         1 RUF      -0.370200
     22 C22          4.2090    -0.0020    -0.0700 c          1 RUF       0.757100
     23 O23          5.4260    -0.0020    -0.1180 o          1 RUF      -0.659500
     24 N24          3.4810    -0.0010    -1.2060 n          1 RUF      -0.467400
     25 C25          4.1660    -0.0010    -2.5010 c3         1 RUF       0.103300
     26 C26          2.1370    -0.0070    -1.1670 c          1 RUF       0.818500
     27 O27          1.5130    -0.0120    -2.2110 o          1 RUF      -0.656500
     28 H1          -0.3610     1.0210     0.0390 h1         1 RUF       0.059367
     29 H1A         -0.3610    -0.5440     0.8640 h1         1 RUF       0.059367
     30 H1B         -0.3610    -0.4770    -0.9030 h1         1 RUF       0.059367
     31 H7           4.2190    -1.5490     4.7980 h1         1 RUF       0.059450
     32 H7A          2.5240    -2.0620     4.8600 h1         1 RUF       0.059450
     33 H8           3.9920    -0.4930     7.0110 h1         1 RUF       0.043450
     34 H8A          3.5440    -2.2060     7.0960 h1         1 RUF       0.043450
     35 HN9          1.9590    -0.8230     8.2020 hn         1 RUF       0.358800
     36 H10          2.2310     1.1990     6.9790 h1         1 RUF       0.043450
     37 H10A         0.5360     0.6850     7.0410 h1         1 RUF       0.043450
     38 H11          1.2130     1.3450     4.7430 h1         1 RUF       0.059450
     39 H11A         0.7630    -0.3670     4.8270 h1         1 RUF       0.059450
     40 H13          5.9650    -0.5850     2.3000 h1         1 RUF       0.085200
     41 H13A         5.3890    -0.4350     3.9660 h1         1 RUF       0.085200
     42 H15          6.6820     1.3460     1.0480 ha         1 RUF       0.171000
     43 H16          7.5250     3.6630     1.1300 ha         1 RUF       0.138000
     44 H17          7.1830     5.0280     3.1520 ha         1 RUF       0.136000
     45 H18          5.9920     4.0830     5.0930 ha         1 RUF       0.143000
     46 H25          5.1770    -0.3690    -2.3740 h1         1 RUF       0.061700
     47 H25A         3.6320    -0.6430    -3.1910 h1         1 RUF       0.061700
     48 H25B         4.1950     1.0080    -2.8940 h1         1 RUF       0.061700
@<TRIPOS>BOND
     1     1     2 1
     2     1    28 1
     3     1    29 1
     4     1    30 1
     5    26     2 1
     6     2     3 1
     7     3    21 2
     8     3     4 1
     9     4     5 2
    10    12     5 1
    11     5     6 1
    12     6    11 1
    13     6     7 1
    14     8     7 1
    15     7    31 1
    16     7    32 1
    17     8     9 1
    18     8    33 1
    19     8    34 1
    20    10     9 1
    21     9    35 1
    22    10    11 1
    23    10    36 1
    24    10    37 1
    25    11    38 1
    26    11    39 1
    27    21    12 1
    28    12    13 1
    29    14    13 1
    30    13    40 1
    31    13    41 1
    32    15    14 ar
    33    14    19 ar
    34    16    15 ar
    35    15    42 1
    36    16    17 ar
    37    16    43 1
    38    17    18 ar
    39    17    44 1
    40    18    19 ar
    41    18    45 1
    42    19    20 1
    43    22    21 1
    44    24    22 1
    45    22    23 2
    46    25    24 1
    47    26    24 1
    48    25    46 1
    49    25    47 1
    50    25    48 1
    51    27    26 2
@<TRIPOS>SUBSTRUCTURE
     1 RUF         1 TEMP              0 ****  ****    0 ROOT
