@<TRIPOS>MOLECULE
RUG
   33    34     1     0     0
SMALL
bcc


@<TRIPOS>ATOM
      1 O2          0.0840   -0.5010    0.4070 oh        1 RUG     -0.600800
      2 C2          1.4670   -0.3030    0.1920 c3        1 RUG      0.090100
      3 C3          2.1090   -0.2340    1.5890 c3        1 RUG      0.105100
      4 O3          2.0250   -1.4890    2.2390 oh        1 RUG     -0.602800
      5 C4          3.6070    0.0900    1.4560 c3        1 RUG      0.121100
      6 O4          4.1740    0.3290    2.7310 oh        1 RUG     -0.593800
      7 C5          3.7860    1.3770    0.6360 c3        1 RUG      0.104100
      8 C6          5.2660    1.6270    0.3300 c3        1 RUG      0.141400
      9 O6          5.4490    2.8710   -0.3070 oh        1 RUG     -0.592800
     10 O5          3.1490    1.2480   -0.6370 os        1 RUG     -0.435600
     11 C1          1.7270    1.0520   -0.5220 c3        1 RUG      0.240800
     12 N1          1.1750    1.1280   -1.8630 na        1 RUG      0.030400
     13 C7          0.9840    2.3260   -2.5760 cc        1 RUG     -0.162600
     14 N2          0.9820    0.0700   -2.6960 nc        1 RUG     -0.174800
     15 N3          0.6390    0.4770   -3.8440 nd        1 RUG     -0.339000
     16 C8          0.6210    1.9000   -3.8630 cd        1 RUG      0.244600
     17 C9          0.2640    2.7020   -5.0530 c3        1 RUG      0.119100
     18 O9          0.2890    4.0730   -4.6710 oh        1 RUG     -0.606800
     19 HO2        -0.2980   -0.8130   -0.4230 ho        1 RUG      0.430000
     20 H2          1.9150   -1.1510   -0.3930 h1        1 RUG      0.088700
     21 H3          1.5920    0.5480    2.2110 h1        1 RUG      0.064700
     22 HO3         1.0870   -1.7240    2.2670 ho        1 RUG      0.429000
     23 H4          4.1330   -0.7710    0.9560 h1        1 RUG      0.066700
     24 HO4         3.9860   -0.4570    3.2640 ho        1 RUG      0.427000
     25 H5          3.3510    2.2530    1.1910 h1        1 RUG      0.071700
     26 H6          5.8290    1.6960    1.2990 h1        1 RUG      0.067700
     27 H6A         5.6730    0.7940   -0.3020 h1        1 RUG      0.067700
     28 HO6         4.9860    2.8270   -1.1540 ho        1 RUG      0.411000
     29 H1          1.2750    1.8990    0.0760 h2        1 RUG      0.077700
     30 H7          1.0980    3.3190   -2.1450 h4        1 RUG      0.207000
     31 H9         -0.7650    2.4270   -5.4160 h1        1 RUG      0.045700
     32 H9A         1.0070    2.5220   -5.8790 h1        1 RUG      0.045700
     33 HO9         0.0780    4.5760   -5.4660 ho        1 RUG      0.409000
@<TRIPOS>BOND
     1    1    2 1   
     2    1   19 1   
     3    2    3 1   
     4    2   11 1   
     5    2   20 1   
     6    3    4 1   
     7    3    5 1   
     8    3   21 1   
     9    4   22 1   
    10    5    6 1   
    11    5    7 1   
    12    5   23 1   
    13    6   24 1   
    14    7    8 1   
    15    7   10 1   
    16    7   25 1   
    17    8    9 1   
    18    8   26 1   
    19    8   27 1   
    20    9   28 1   
    21   10   11 1   
    22   11   12 1   
    23   11   29 1   
    24   12   13 1   
    25   12   14 1   
    26   13   16 2   
    27   13   30 1   
    28   14   15 2   
    29   15   16 1   
    30   16   17 1   
    31   17   18 1   
    32   17   31 1   
    33   17   32 1   
    34   18   33 1   
@<TRIPOS>SUBSTRUCTURE
     1 RUG         1 TEMP              0 ****  ****    0 ROOT
