@<TRIPOS>MOLECULE
molecule
   33    34     1     0     0
SMALL
bcc


@<TRIPOS>ATOM
      1 O2           0.0000     0.0000     0.0000 oh         1 RUG      -0.597800
      2 C2           1.4290     0.0000     0.0000 c3         1 RUG       0.096100
      3 C3           1.9410     0.0000     1.4440 c3         1 RUG       0.105100
      4 O3           1.5290    -1.2030     2.0970 oh         1 RUG      -0.601800
      5 C4           3.4710     0.0780     1.4320 c3         1 RUG       0.101100
      6 O4           3.9560     0.1520     2.7740 oh         1 RUG      -0.599800
      7 C5           3.9030     1.3290     0.6620 c3         1 RUG       0.153100
      8 C6           5.4310     1.3820     0.5940 c3         1 RUG       0.153400
      9 O6           5.8380     2.6060    -0.0210 oh         1 RUG      -0.599800
     10 O5           3.3690     1.2790    -0.6630 os         1 RUG      -0.398600
     11 C1           1.9410     1.2530    -0.7140 c3         1 RUG       0.283800
     12 N1           1.5030     1.2320    -2.1130 na         1 RUG       0.129400
     13 C7           0.8100     2.2100    -2.7410 cc         1 RUG      -0.235600
     14 N2           1.7180     0.2830    -2.9550 nc         1 RUG      -0.196800
     15 N3           1.2020     0.5780    -4.0950 nd         1 RUG      -0.361000
     16 C8           0.6190     1.7790    -4.0100 cd         1 RUG       0.266600
     17 C9          -0.1030     2.5120    -5.1110 c3         1 RUG       0.133100
     18 O9          -0.5770     3.7660    -4.6170 oh         1 RUG      -0.617800
     19 HO2         -0.3140    -0.8860    -0.0750 ho         1 RUG       0.424000
     20 H2           1.7960    -0.8810    -0.5120 h1         1 RUG       0.083700
     21 H3           1.5400     0.8590     1.9680 h1         1 RUG       0.060700
     22 HO3          1.0030    -0.9880     2.8490 ho         1 RUG       0.417000
     23 H4           3.8730    -0.8020     0.9440 h1         1 RUG       0.063700
     24 HO4          4.2840    -0.6920     3.0360 ho         1 RUG       0.417000
     25 H5           3.5290     2.2100     1.1680 h1         1 RUG       0.065700
     26 H6           5.7960     0.5450     0.0100 h1         1 RUG       0.040700
     27 H6A          5.8400     1.3280     1.5960 h1         1 RUG       0.040700
     28 HO6          6.7790     2.6610    -0.0200 ho         1 RUG       0.407000
     29 H1           1.5480     2.1340    -0.2210 h2         1 RUG       0.078700
     30 H7           0.4720     3.1460    -2.3140 h4         1 RUG       0.197000
     31 H9          -0.9420     1.9170    -5.4510 h1         1 RUG       0.040700
     32 H9A          0.5770     2.6840    -5.9370 h1         1 RUG       0.040700
     33 HO9         -1.0290     4.2250    -5.3060 ho         1 RUG       0.410000
@<TRIPOS>BOND
     1     1     2 1
     2     1    19 1
     3     3     2 1
     4     2    11 1
     5     2    20 1
     6     4     3 1
     7     3     5 1
     8     3    21 1
     9     4    22 1
    10     6     5 1
    11     5     7 1
    12     5    23 1
    13     6    24 1
    14     7     8 1
    15     7    10 1
    16     7    25 1
    17     9     8 1
    18     8    26 1
    19     8    27 1
    20     9    28 1
    21    11    10 1
    22    11    12 1
    23    11    29 1
    24    13    12 1
    25    12    14 1
    26    13    16 2
    27    13    30 1
    28    14    15 2
    29    16    15 1
    30    16    17 1
    31    17    18 1
    32    17    31 1
    33    17    32 1
    34    18    33 1
@<TRIPOS>SUBSTRUCTURE
     1 RUG         1 TEMP              0 ****  ****    0 ROOT
