@<TRIPOS>MOLECULE
molecule
   27    26     1     0     0
SMALL
bcc


@<TRIPOS>ATOM
      1 O4           0.0000     0.0000     0.0000 o          1 RUJ      -0.818300
      2 C5           1.2090     0.0000     0.0000 c          1 RUJ       0.890600
      3 O7           1.8790     0.0000     1.1630 o          1 RUJ      -0.818300
      4 C6           1.9620    -0.0050    -1.3040 c3         1 RUJ      -0.173400
      5 C3           0.9690    -0.0100    -2.4680 c3         1 RUJ       0.124800
      6 N2           1.7040     0.0050    -3.7390 n3         1 RUJ      -0.483400
      7 C21          2.2500     1.3400    -4.0170 c3         1 RUJ       0.102100
      8 N1           0.8620    -0.4510    -4.8330 n4         1 RUJ      -0.377600
      9 C8          -0.3350     0.3960    -4.9160 c3         1 RUJ       0.091767
     10 C9           1.6090    -0.3670    -6.0960 c3         1 RUJ       0.091767
     11 C10          0.4600    -1.8440    -4.5950 c3         1 RUJ       0.091767
     12 H61C         2.5850    -0.8900    -1.3570 hc         1 RUJ       0.050200
     13 H62C         2.5850     0.8790    -1.3650 hc         1 RUJ       0.050200
     14 H31C         0.3560    -0.9020    -2.4160 h1         1 RUJ       0.066700
     15 H32C         0.3360     0.8670    -2.4060 h1         1 RUJ       0.066700
     16 H211         1.5990     2.0930    -3.5870 h1         1 RUJ       0.068367
     17 H212         2.3150     1.4890    -5.0880 h1         1 RUJ       0.068367
     18 H213         3.2370     1.4250    -3.5800 h1         1 RUJ       0.068367
     19 H81C        -0.0440     1.4380    -4.8780 hx         1 RUJ       0.093478
     20 H82C        -0.9930     0.1730    -4.0850 hx         1 RUJ       0.093478
     21 H83C        -0.8520     0.1990    -5.8480 hx         1 RUJ       0.093478
     22 H91C         1.1640    -1.0340    -6.8240 hx         1 RUJ       0.093478
     23 H92C         2.6400    -0.6550    -5.9250 hx         1 RUJ       0.093478
     24 H93C         1.5760     0.6500    -6.4680 hx         1 RUJ       0.093478
     25 H101        -0.3670    -1.8660    -3.8960 hx         1 RUJ       0.093478
     26 H102         0.1540    -2.2960    -5.5300 hx         1 RUJ       0.093478
     27 H103         1.2970    -2.3950    -4.1830 hx         1 RUJ       0.093478
@<TRIPOS>BOND
     1     1     2 1
     2     2     3 1
     3     2     4 1
     4     4     5 1
     5     5     6 1
     6     6     7 1
     7     6     8 1
     8     8     9 1
     9     8    10 1
    10     8    11 1
    11     4    12 1
    12     4    13 1
    13     5    14 1
    14     5    15 1
    15     7    16 1
    16     7    17 1
    17     7    18 1
    18     9    19 1
    19     9    20 1
    20     9    21 1
    21    10    22 1
    22    10    23 1
    23    10    24 1
    24    11    25 1
    25    11    26 1
    26    11    27 1
@<TRIPOS>SUBSTRUCTURE
     1 RUJ         1 TEMP              0 ****  ****    0 ROOT
