@<TRIPOS>MOLECULE
RUM
   43    45     1     0     0
SMALL
bcc


@<TRIPOS>ATOM
      1 N17         -1.3030    -0.0120    -2.2120 n1         1 RUM      -0.473800
      2 C16         -0.7190     0.0000    -1.2380 cg         1 RUM       0.302800
      3 C15          0.0000     0.0000     0.0000 ca         1 RUM      -0.004000
      4 C14          1.3960     0.0000     0.0000 ca         1 RUM      -0.057000
      5 C13          2.0840     0.0000     1.1960 ca         1 RUM      -0.081000
      6 C12          1.3920     0.0010     2.3950 ca         1 RUM      -0.057000
      7 C11          0.0080     0.0010     2.4030 ca         1 RUM      -0.037000
      8 C10         -0.6910     0.0070     1.2130 ca         1 RUM      -0.092300
      9 C9          -2.1990     0.0140     1.2230 c3         1 RUM       0.038300
     10 N2          -2.6950    -1.3070     0.8330 n          1 RUM       0.052700
     11 C3          -3.5720    -1.4300    -0.2000 cc         1 RUM       0.408800
     12 N4          -4.0330    -2.6070    -0.5680 nd         1 RUM      -0.619300
     13 C5          -3.6580    -3.7230     0.0540 cd         1 RUM       0.176600
     14 C6          -2.7810    -3.6630     1.0980 cc         1 RUM      -0.208500
     15 Br7         -2.2400    -5.2410     1.9910 br         1 RUM      -0.000700
     16 C1          -2.2810    -2.4100     1.4940 c          1 RUM       0.615700
     17 O8          -1.4900    -2.3200     2.4190 o          1 RUM      -0.643500
     18 N18         -3.9840    -0.3070    -0.8680 nh         1 RUM      -0.458600
     19 C23         -4.0640    -0.2970    -2.3350 c3         1 RUM       0.173800
     20 C22         -5.4690     0.1520    -2.7500 c3         1 RUM      -0.115500
     21 N24         -5.5280     0.2920    -4.2100 nz         1 RUM       0.089400
     22 C21         -5.7840     1.4970    -2.0930 c3         1 RUM      -0.028400
     23 C20         -5.7550     1.3450    -0.5710 c3         1 RUM      -0.027400
     24 C19         -4.3590     0.9070    -0.1320 c3         1 RUM       0.159800
     25 H14          1.9390    -0.0010    -0.9380 ha         1 RUM       0.117000
     26 H13          3.1670    -0.0000     1.1970 ha         1 RUM       0.119000
     27 H12          1.9370    -0.0020     3.3310 ha         1 RUM       0.118000
     28 H11         -0.5280     0.0040     3.3440 ha         1 RUM       0.126000
     29 H9          -2.5610     0.7570     0.5240 h1         1 RUM       0.054700
     30 H9A         -2.5520     0.2530     2.2190 h1         1 RUM       0.054700
     31 H5          -4.0510    -4.6800    -0.2680 h4         1 RUM       0.138000
     32 H23         -3.8760    -1.2940    -2.7150 h1         1 RUM       0.065200
     33 H23A        -3.3310     0.3940    -2.7340 h1         1 RUM       0.065200
     34 H22         -6.1930    -0.5860    -2.4240 hx         1 RUM       0.104700
     35 HN24        -5.3430    -0.5930    -4.6390 hn         1 RUM       0.223800
     36 HN2A        -4.8430     0.9580    -4.5100 hn         1 RUM       0.223800
     37 H21         -6.7690     1.8260    -2.4030 hc         1 RUM       0.034700
     38 H21A        -5.0430     2.2270    -2.3960 hc         1 RUM       0.034700
     39 H20         -6.4780     0.5960    -0.2700 hc         1 RUM       0.045700
     40 H20A        -5.9960     2.2940    -0.1100 hc         1 RUM       0.045700
     41 H19         -3.6480     1.6960    -0.3480 h1         1 RUM       0.044700
     42 H19A        -4.3640     0.6980     0.9310 h1         1 RUM       0.044700
     43 H243        -6.4380     0.6110    -4.4780 hn         1 RUM       0.223800
@<TRIPOS>BOND
     1     1     2 3   
     2     2     3 1   
     3     3     4 ar  
     4     3     8 ar  
     5     4     5 ar  
     6     4    25 1   
     7     5     6 ar  
     8     5    26 1   
     9     6     7 ar  
    10     6    27 1   
    11     7     8 ar  
    12     7    28 1   
    13     8     9 1   
    14     9    10 1   
    15     9    29 1   
    16     9    30 1   
    17    10    11 1   
    18    10    16 1   
    19    11    12 2   
    20    11    18 1   
    21    12    13 1   
    22    13    14 2   
    23    13    31 1   
    24    14    15 1   
    25    14    16 1   
    26    16    17 2   
    27    18    19 1   
    28    18    24 1   
    29    19    20 1   
    30    19    32 1   
    31    19    33 1   
    32    20    21 1   
    33    20    22 1   
    34    20    34 1   
    35    21    35 1   
    36    21    36 1   
    37    21    43 1   
    38    22    23 1   
    39    22    37 1   
    40    22    38 1   
    41    23    24 1   
    42    23    39 1   
    43    23    40 1   
    44    24    41 1   
    45    24    42 1   
@<TRIPOS>SUBSTRUCTURE
     1 RUM         1 TEMP              0 ****  ****    0 ROOT
