@<TRIPOS>MOLECULE
RUN
   93    96     1     0     0
SMALL
bcc


@<TRIPOS>ATOM
      1 C1'          0.0000     0.0000     0.0000 c          1 RUN       0.675700
      2 O1'          1.2140     0.0000     0.0000 o          1 RUN      -0.588100
      3 C2D         -0.7520     0.0000     1.3060 c3         1 RUN      -0.138700
      4 C3'          0.0740    -0.7220     2.3710 c3         1 RUN       0.016400
      5 C4D         -1.0070     1.4420     1.7480 c3         1 RUN       0.016400
      6 N1'         -0.1690     0.0010    -2.4980 na         1 RUN       0.340100
      7 C2'         -1.1970     0.0000    -3.3630 cc         1 RUN       0.190800
      8 N3'         -2.3260     0.0060    -2.7000 nd         1 RUN      -0.629000
      9 C4'         -2.0800     0.0010    -1.3910 cd         1 RUN       0.386200
     10 C5'         -0.7080     0.0000    -1.2250 cc         1 RUN      -0.549200
     11 C1          -1.0710     0.0020    -4.8640 c3         1 RUN      -0.050000
     12 C2          -2.2720    -0.7190    -5.4780 c3         1 RUN      -0.039400
     13 C3          -2.2410    -2.1940    -5.0780 c3         1 RUN       0.168100
     14 O3          -1.0680    -2.8090    -5.6160 oh         1 RUN      -0.595800
     15 C4          -3.4830    -2.8980    -5.6270 c3         1 RUN      -0.000300
     16 N5          -3.5010    -2.7890    -7.0870 ns         1 RUN      -0.174900
     17 C6          -4.6770    -2.7600    -7.7460 c          1 RUN       0.568100
     18 O6          -5.7170    -2.7260    -7.1270 o          1 RUN      -0.644100
     19 C7          -4.6960    -2.7700    -9.2520 c3         1 RUN      -0.044300
     20 N8          -6.0140    -3.2010    -9.7210 ns         1 RUN      -0.143900
     21 C9          -6.1330    -3.8560   -10.8930 c          1 RUN       0.682100
     22 O9          -5.1440    -4.0890   -11.5610 o          1 RUN      -0.678000
     23 C10         -4.4030    -1.3630    -9.7760 c3         1 RUN      -0.060700
     24 C11         -4.3320    -1.3900   -11.3030 c3         1 RUN      -0.010600
     25 C12         -5.5180    -0.4130    -9.3350 c3         1 RUN      -0.010600
     26 CA          -1.0270     1.4450    -5.3720 c3         1 RUN       0.031900
     27 C1A          0.2310     2.1120    -4.8800 ca         1 RUN      -0.109300
     28 C2A          1.3850     2.0560    -5.6390 ca         1 RUN      -0.108500
     29 C3A          2.5390     2.6680    -5.1890 ca         1 RUN      -0.095500
     30 C4A          2.5400     3.3390    -3.9790 ca         1 RUN      -0.099000
     31 C5A          1.3860     3.3960    -3.2210 ca         1 RUN      -0.095500
     32 C6A          0.2310     2.7870    -3.6740 ca         1 RUN      -0.108500
     33 CB          -3.4520    -4.3740    -5.2260 c3         1 RUN       0.013900
     34 C1B         -4.6760    -5.0680    -5.7660 ca         1 RUN      -0.086300
     35 C2B         -4.6440    -5.6460    -7.0210 ca         1 RUN      -0.095000
     36 C3B         -5.7680    -6.2820    -7.5180 ca         1 RUN      -0.094000
     37 C4B         -6.9210    -6.3390    -6.7580 ca         1 RUN      -0.100000
     38 C5B         -6.9510    -5.7630    -5.5030 ca         1 RUN      -0.094000
     39 C6B         -5.8280    -5.1300    -5.0050 ca         1 RUN      -0.095000
     40 OC          -7.3450    -4.2520   -11.3240 os         1 RUN      -0.425900
     41 CC          -7.4720    -4.9580   -12.5870 c3         1 RUN       0.309700
     42 C1C         -8.9210    -5.2860   -12.8360 ca         1 RUN      -0.119300
     43 C2C         -9.7250    -4.3920   -13.5190 ca         1 RUN      -0.074000
     44 C3C        -11.0550    -4.6940   -13.7470 ca         1 RUN      -0.107000
     45 C4C        -11.5800    -5.8880   -13.2930 ca         1 RUN      -0.090000
     46 C5C        -10.7770    -6.7820   -12.6100 ca         1 RUN      -0.107000
     47 C6C         -9.4460    -6.4820   -12.3860 ca         1 RUN      -0.074000
     48 H2'         -1.6990    -0.5100     1.1770 hc         1 RUN       0.037700
     49 H3'1        -0.5130    -0.8270     3.2750 hc         1 RUN       0.009033
     50 H3'2         0.3550    -1.7030     2.0070 hc         1 RUN       0.009033
     51 H3'3         0.9680    -0.1480     2.5860 hc         1 RUN       0.009033
     52 H4'1        -0.0760     1.9960     1.7270 hc         1 RUN       0.009033
     53 H4'2        -1.7180     1.9060     1.0750 hc         1 RUN       0.009033
     54 H4'3        -1.4070     1.4460     2.7550 hc         1 RUN       0.009033
     55 H4'         -2.8210     0.0040    -0.6000 h4         1 RUN       0.010100
     56 H1          -0.1590    -0.5080    -5.1500 hc         1 RUN       0.038700
     57 H21         -3.1880    -0.2660    -5.1180 hc         1 RUN       0.041700
     58 H22         -2.2290    -0.6370    -6.5580 hc         1 RUN       0.041700
     59 H3          -2.2280    -2.2750    -3.9980 h1         1 RUN       0.026700
     60 HO3         -0.5800    -3.2170    -4.9210 ho         1 RUN       0.395000
     61 H4          -4.3720    -2.4320    -5.2190 h1         1 RUN       0.075700
     62 HN5         -2.6410    -2.7500    -7.5960 hn         1 RUN       0.188500
     63 H7          -3.9410    -3.4550    -9.6180 h1         1 RUN       0.068700
     64 HN8         -6.8280    -3.0110    -9.1700 hn         1 RUN       0.203500
     65 H10         -3.4560    -1.0190    -9.3760 hc         1 RUN       0.024700
     66 H111        -5.3310    -1.4940   -11.7090 hc         1 RUN       0.013700
     67 H112        -3.7230    -2.2270   -11.6220 hc         1 RUN       0.013700
     68 H113        -3.8920    -0.4670   -11.6600 hc         1 RUN       0.013700
     69 H121        -5.2820     0.5940    -9.6560 hc         1 RUN       0.013700
     70 H122        -5.6080    -0.4370    -8.2560 hc         1 RUN       0.013700
     71 H123        -6.4550    -0.7240    -9.7820 hc         1 RUN       0.013700
     72 HA1         -1.0380     1.4470    -6.4550 hc         1 RUN       0.032200
     73 HA2         -1.8900     1.9840    -5.0010 hc         1 RUN       0.032200
     74 H2A          1.3850     1.5310    -6.5870 ha         1 RUN       0.111500
     75 H3A          3.4430     2.6240    -5.7830 ha         1 RUN       0.106000
     76 H4A          3.4450     3.8170    -3.6260 ha         1 RUN       0.106000
     77 H5A          1.3850     3.9220    -2.2740 ha         1 RUN       0.106000
     78 H6A         -0.6740     2.8310    -3.0790 ha         1 RUN       0.111500
     79 HB1         -2.5630    -4.8400    -5.6330 hc         1 RUN       0.025200
     80 HB2         -3.4390    -4.4540    -4.1460 hc         1 RUN       0.025200
     81 H2B         -3.7400    -5.6010    -7.6160 ha         1 RUN       0.103000
     82 H3B         -5.7440    -6.7350    -8.5010 ha         1 RUN       0.101000
     83 H4B         -7.8010    -6.8360    -7.1470 ha         1 RUN       0.101000
     84 H5B         -7.8550    -5.8100    -4.9080 ha         1 RUN       0.101000
     85 H6B         -5.8520    -4.6780    -4.0210 ha         1 RUN       0.103000
     86 HC1         -7.1010    -4.3310   -13.3900 h1         1 RUN       0.011700
     87 HC2         -6.8950    -5.8740   -12.5490 h1         1 RUN       0.011700
     88 H2C         -9.3130    -3.4560   -13.8760 ha         1 RUN       0.106000
     89 H3C        -11.6850    -3.9940   -14.2820 ha         1 RUN       0.103000
     90 H4C        -12.6220    -6.1230   -13.4710 ha         1 RUN       0.101000
     91 H5C        -11.1880    -7.7190   -12.2560 ha         1 RUN       0.103000
     92 H6C         -8.8160    -7.1820   -11.8510 ha         1 RUN       0.106000
     93 HN1          0.8040    -0.0030    -2.7320 hn         1 RUN       0.138700
@<TRIPOS>BOND
     1     1     2 2   
     2     1     3 1   
     3     1    10 1   
     4     3     4 1   
     5     3     5 1   
     6     3    48 1   
     7     4    49 1   
     8     4    50 1   
     9     4    51 1   
    10     5    52 1   
    11     5    53 1   
    12     5    54 1   
    13     6     7 1   
    14     6    10 1   
    15     6    93 1   
    16     7     8 2   
    17     7    11 1   
    18     8     9 1   
    19     9    10 2   
    20     9    55 1   
    21    11    12 1   
    22    11    26 1   
    23    11    56 1   
    24    12    13 1   
    25    12    57 1   
    26    12    58 1   
    27    13    14 1   
    28    13    15 1   
    29    13    59 1   
    30    14    60 1   
    31    15    16 1   
    32    15    33 1   
    33    15    61 1   
    34    16    17 1   
    35    16    62 1   
    36    17    18 2   
    37    17    19 1   
    38    19    20 1   
    39    19    23 1   
    40    19    63 1   
    41    20    21 1   
    42    20    64 1   
    43    21    22 2   
    44    21    40 1   
    45    23    24 1   
    46    23    25 1   
    47    23    65 1   
    48    24    66 1   
    49    24    67 1   
    50    24    68 1   
    51    25    69 1   
    52    25    70 1   
    53    25    71 1   
    54    26    27 1   
    55    26    72 1   
    56    26    73 1   
    57    27    28 ar  
    58    27    32 ar  
    59    28    29 ar  
    60    28    74 1   
    61    29    30 ar  
    62    29    75 1   
    63    30    31 ar  
    64    30    76 1   
    65    31    32 ar  
    66    31    77 1   
    67    32    78 1   
    68    33    34 1   
    69    33    79 1   
    70    33    80 1   
    71    34    35 ar  
    72    34    39 ar  
    73    35    36 ar  
    74    35    81 1   
    75    36    37 ar  
    76    36    82 1   
    77    37    38 ar  
    78    37    83 1   
    79    38    39 ar  
    80    38    84 1   
    81    39    85 1   
    82    40    41 1   
    83    41    42 1   
    84    41    86 1   
    85    41    87 1   
    86    42    43 ar  
    87    42    47 ar  
    88    43    44 ar  
    89    43    88 1   
    90    44    45 ar  
    91    44    89 1   
    92    45    46 ar  
    93    45    90 1   
    94    46    47 ar  
    95    46    91 1   
    96    47    92 1   
@<TRIPOS>SUBSTRUCTURE
     1 RUN         1 TEMP              0 ****  ****    0 ROOT
