@<TRIPOS>MOLECULE
molecule
   74    78     1     0     0
SMALL
bcc


@<TRIPOS>ATOM
      1 C1           0.0000     0.0000     0.0000 c3         1 RUP      -0.063033
      2 C6           1.5300     0.0000     0.0000 c3         1 RUP      -0.087733
      3 C9           2.0410     0.0000     1.4420 c3         1 RUP       0.161400
      4 N10          3.5050    -0.0000     1.4420 ns         1 RUP      -0.593900
      5 C12          4.1800     0.0010     2.6090 c          1 RUP       0.786100
      6 O17          3.5720     0.0020     3.6620 o          1 RUP      -0.682100
      7 N13          5.5260     0.0010     2.6090 ns         1 RUP      -0.585900
      8 C14          6.2590     0.0000     3.8760 c3         1 RUP       0.059700
      9 C26          7.5760    -0.7090     3.6970 c          1 RUP       0.647100
     10 O31          7.8730    -1.1710     2.6160 o          1 RUP      -0.595100
     11 N27          8.4230    -0.8330     4.7370 ns         1 RUP      -0.579900
     12 C28          9.7030    -1.5230     4.5630 c3         1 RUP       0.113000
     13 C29         10.4690    -1.5230     5.8880 c3         1 RUP      -0.050100
     14 C30         11.7850    -2.2330     5.7070 ca         1 RUP      -0.092300
     15 C36         12.9070    -1.5240     5.3260 ca         1 RUP      -0.121500
     16 C35         14.1140    -2.1750     5.1600 ca         1 RUP      -0.122500
     17 C34         14.2000    -3.5370     5.3780 ca         1 RUP      -0.120000
     18 C33         13.0790    -4.2470     5.7610 ca         1 RUP      -0.122500
     19 C32         11.8720    -3.5940     5.9300 ca         1 RUP      -0.121500
     20 C15          6.5140     1.4430     4.3180 c3         1 RUP      -0.054100
     21 C16          5.1990     2.1540     4.4970 ca         1 RUP      -0.054300
     22 C22          4.5660     2.1330     5.7270 ca         1 RUP      -0.050000
     23 C21          3.3570     2.7840     5.9000 ca         1 RUP      -0.096000
     24 C20          2.7750     3.4570     4.8450 ca         1 RUP      -0.129000
     25 C19          3.4090     3.4800     3.6040 ca         1 RUP      -0.187900
     26 C23          2.7890     4.2010     2.4680 ce         1 RUP       0.554800
     27 N25          1.5850     4.8500     2.6370 nz         1 RUP      -0.802600
     28 N24          3.3830     4.2210     1.3090 n2         1 RUP      -0.694100
     29 C18          4.6230     2.8180     3.4340 ca         1 RUP      -0.032000
     30 C8           1.5300    -1.2480     2.1630 c3         1 RUP      -0.087733
     31 C11          1.5310     1.2500     2.1620 c3         1 RUP      -0.087733
     32 C4           0.0010     1.2500     2.1620 c3         1 RUP      -0.063033
     33 C5          -0.5100     1.2500     0.7200 c3         1 RUP      -0.070400
     34 C3          -0.5090     0.0010     2.8850 c3         1 RUP      -0.070400
     35 C2          -0.5100    -1.2490     0.7210 c3         1 RUP      -0.070400
     36 C7           0.0010    -1.2480     2.1640 c3         1 RUP      -0.063033
     37 H1          -0.3610    -0.0000    -1.0210 hc         1 RUP       0.045033
     38 H61          1.8910    -0.8850    -0.5110 hc         1 RUP       0.053033
     39 H62          1.8910     0.8840    -0.5110 hc         1 RUP       0.053033
     40 H10          4.0060    -0.0030     0.5750 hn         1 RUP       0.317500
     41 H13          6.0260    -0.0330     1.7430 hn         1 RUP       0.337500
     42 H14          5.6740    -0.5100     4.6320 h1         1 RUP       0.102700
     43 H27          8.1640    -0.4800     5.6370 hn         1 RUP       0.312500
     44 H281        10.2880    -1.0120     3.8080 h1         1 RUP       0.064700
     45 H282         9.5230    -2.5440     4.2500 h1         1 RUP       0.064700
     46 H291        10.6490    -0.5020     6.2000 hc         1 RUP       0.050200
     47 H292         9.8840    -2.0340     6.6430 hc         1 RUP       0.050200
     48 H36         12.8380    -0.4570     5.1470 ha         1 RUP       0.129500
     49 H35         14.9950    -1.6170     4.8650 ha         1 RUP       0.135500
     50 H34         15.1480    -4.0460     5.2550 ha         1 RUP       0.136000
     51 H33         13.1540    -5.3080     5.9680 ha         1 RUP       0.135500
     52 H32         11.0500    -4.1570     6.3550 ha         1 RUP       0.129500
     53 H151         7.1000     1.9540     3.5640 hc         1 RUP       0.067200
     54 H152         7.0550     1.4430     5.2570 hc         1 RUP       0.067200
     55 H22          5.0190     1.6060     6.5590 ha         1 RUP       0.153000
     56 H21          2.8660     2.7650     6.8660 ha         1 RUP       0.155000
     57 H20          1.8290     3.9660     4.9820 ha         1 RUP       0.101000
     58 H251         1.1670     5.0160     1.7430 hn         1 RUP       0.464800
     59 H252         0.9750     4.2820     3.1910 hn         1 RUP       0.464800
     60 H24          2.9650     4.7080     0.5400 hn         1 RUP       0.427400
     61 H18          5.1190     2.8330     2.4710 ha         1 RUP       0.165000
     62 H81          1.8910    -2.1330     1.6520 hc         1 RUP       0.053033
     63 H82          1.8920    -1.2490     3.1840 hc         1 RUP       0.053033
     64 H111         1.8920     1.2510     3.1840 hc         1 RUP       0.053033
     65 H112         1.8920     2.1340     1.6510 hc         1 RUP       0.053033
     66 H4          -0.3600     2.1350     2.6730 hc         1 RUP       0.045033
     67 H51         -1.5930     1.2500     0.7210 hc         1 RUP       0.046033
     68 H52         -0.1490     2.1340     0.2090 hc         1 RUP       0.046033
     69 H31         -0.1480     0.0010     3.9060 hc         1 RUP       0.046033
     70 H32A        -1.5920     0.0010     2.8840 hc         1 RUP       0.046033
     71 H21A        -1.5930    -1.2490     0.7220 hc         1 RUP       0.046033
     72 H22A        -0.1490    -2.1330     0.2110 hc         1 RUP       0.046033
     73 H7          -0.3600    -2.1320     2.6750 hc         1 RUP       0.045033
     74 H253         1.7400     5.7230     3.1010 hn         1 RUP       0.464800
@<TRIPOS>BOND
     1     1     2 1
     2     1    33 1
     3     1    35 1
     4     1    37 1
     5     2     3 1
     6     2    38 1
     7     2    39 1
     8     3     4 1
     9     3    30 1
    10     3    31 1
    11     4     5 1
    12     4    40 1
    13     5     6 2
    14     5     7 1
    15     7     8 1
    16     7    41 1
    17     8     9 1
    18     8    20 1
    19     8    42 1
    20     9    10 2
    21     9    11 1
    22    11    12 1
    23    11    43 1
    24    12    13 1
    25    12    44 1
    26    12    45 1
    27    13    14 1
    28    13    46 1
    29    13    47 1
    30    14    15 ar
    31    14    19 ar
    32    15    16 ar
    33    15    48 1
    34    16    17 ar
    35    16    49 1
    36    17    18 ar
    37    17    50 1
    38    18    19 ar
    39    18    51 1
    40    19    52 1
    41    20    21 1
    42    20    53 1
    43    20    54 1
    44    21    22 ar
    45    21    29 ar
    46    22    23 ar
    47    22    55 1
    48    23    24 ar
    49    23    56 1
    50    24    25 ar
    51    24    57 1
    52    25    26 1
    53    25    29 ar
    54    26    27 1
    55    26    28 2
    56    27    58 1
    57    27    59 1
    58    28    60 1
    59    29    61 1
    60    30    36 1
    61    30    62 1
    62    30    63 1
    63    31    32 1
    64    31    64 1
    65    31    65 1
    66    32    33 1
    67    32    34 1
    68    32    66 1
    69    33    67 1
    70    33    68 1
    71    34    36 1
    72    34    69 1
    73    34    70 1
    74    35    36 1
    75    35    71 1
    76    35    72 1
    77    36    73 1
    78    74    27 1
@<TRIPOS>SUBSTRUCTURE
     1 RUP         1 TEMP              0 ****  ****    0 ROOT
