@<TRIPOS>MOLECULE
RV1
   28    29     1     0     0
SMALL
bcc


@<TRIPOS>ATOM
      1 C            0.0000     0.0000     0.0000 ca         1 RV1       0.089600
      2 N           -0.7010     0.0000    -1.2090 nv         1 RV1      -0.570200
      3 O            1.3880    -0.5440     4.8930 o          1 RV1      -0.572800
      4 S            2.2690     0.0010     3.9190 sy         1 RV1       1.041900
      5 C1           1.3890     0.0000     0.0000 ca         1 RV1      -0.151500
      6 N1           2.5150     1.5820     4.3430 ns         1 RV1      -0.297300
      7 O1           3.5510    -0.5450     3.6410 o          1 RV1      -0.572800
      8 C2           2.0770     0.0000     1.1970 ca         1 RV1       0.019000
      9 O2           0.3360     1.9250     4.5930 o          1 RV1      -0.609100
     10 C3           1.3860     0.0010     2.3950 ca         1 RV1      -0.169500
     11 C4           0.0030    -0.0000     2.3980 ca         1 RV1       0.019000
     12 C5          -0.6920     0.0060     1.2040 ca         1 RV1      -0.151500
     13 C6           1.4630     2.3730     4.6380 c          1 RV1       0.688100
     14 C7           1.6860     3.8120     5.0240 cx         1 RV1      -0.226700
     15 C8           0.4530     4.6570     5.3470 cx         1 RV1      -0.045400
     16 C9           1.3880     4.2100     6.4700 cx         1 RV1      -0.045400
     17 HN          -0.9530    -0.8670    -1.6420 hn         1 RV1       0.278800
     18 HNA         -0.9500     0.8670    -1.6430 hn         1 RV1       0.278800
     19 H1           1.9320    -0.0000    -0.9380 ha         1 RV1       0.115000
     20 HN1          3.4450     1.9460     4.4020 hn         1 RV1       0.231500
     21 H2           3.1610    -0.0000     1.1980 ha         1 RV1       0.130000
     22 H4          -0.5370     0.0040     3.3370 ha         1 RV1       0.130000
     23 H5          -1.7750     0.0050     1.2070 ha         1 RV1       0.115000
     24 H7           2.5010     4.3570     4.5630 hc         1 RV1       0.064700
     25 H8          -0.4960     4.1380     5.2940 hc         1 RV1       0.053200
     26 H8A          0.5180     5.7030     5.0730 hc         1 RV1       0.053200
     27 H9           2.0260     4.9820     6.8830 hc         1 RV1       0.053200
     28 H9A          1.0110     3.4170     7.1050 hc         1 RV1       0.053200
@<TRIPOS>BOND
     1     1     2 1   
     2     1     5 ar  
     3     1    12 ar  
     4     2    17 1   
     5     2    18 1   
     6     3     4 2   
     7     4     6 1   
     8     4     7 2   
     9     4    10 1   
    10     5     8 ar  
    11     5    19 1   
    12     6    13 1   
    13     6    20 1   
    14     8    10 ar  
    15     8    21 1   
    16     9    13 2   
    17    10    11 ar  
    18    11    12 ar  
    19    11    22 1   
    20    12    23 1   
    21    13    14 1   
    22    14    15 1   
    23    14    16 1   
    24    14    24 1   
    25    15    16 1   
    26    15    25 1   
    27    15    26 1   
    28    16    27 1   
    29    16    28 1   
@<TRIPOS>SUBSTRUCTURE
     1 RV1         1 TEMP              0 ****  ****    0 ROOT
