@<TRIPOS>MOLECULE
RVA
   32    33     1     0     0
SMALL
bcc


@<TRIPOS>ATOM
      1 C          -0.0340    0.2790    0.2900 c         1 RVA      0.917200
      2 C'          6.7900   -1.2490    1.6800 c         1 RVA      0.906800
      3 C1          1.4610    0.0830    0.1690 ca        1 RVA     -0.209600
      4 C2          2.3070   -0.1030    1.2770 ca        1 RVA      0.147100
      5 O2          1.8770   -0.1230    2.5780 oh        1 RVA     -0.539100
      6 C3          3.7030   -0.2850    1.0760 ca        1 RVA      0.061100
      7 O3          4.4570   -0.5360    2.2220 os        1 RVA     -0.265200
      8 C4          4.2420   -0.2740   -0.2090 ca        1 RVA     -0.153000
      9 C5          3.3940   -0.0790   -1.3010 ca        1 RVA     -0.191000
     10 C6          2.0280    0.0940   -1.1110 ca        1 RVA     -0.102000
     11 C7          5.8060   -0.1780    2.1680 ce        1 RVA      0.084900
     12 C8          6.2690    0.9840    2.6770 cf        1 RVA     -0.224200
     13 C9          5.5650    2.1150    3.2390 ca        1 RVA      0.010200
     14 OA         -0.7150    0.4370   -0.7640 o         1 RVA     -0.852300
     15 OB         -0.5720    0.2810    1.4430 o         1 RVA     -0.852300
     16 C10         4.1920    2.0980    3.5390 ca        1 RVA     -0.138500
     17 C11         3.5750    3.2170    4.0940 ca        1 RVA     -0.140000
     18 C12         4.3100    4.3710    4.3690 ca        1 RVA     -0.175000
     19 C13         5.6730    4.4000    4.0800 ca        1 RVA     -0.140000
     20 C14         6.2940    3.2870    3.5220 ca        1 RVA     -0.138500
     21 OA'         7.1910   -1.1800    0.4850 o         1 RVA     -0.823300
     22 OB'         7.1860   -2.1030    2.5170 o         1 RVA     -0.823300
     23 HO2         0.9040   -0.0210    2.5840 ho        1 RVA      0.468000
     24 H4          5.3280   -0.4300   -0.3460 ha        1 RVA      0.185000
     25 H5          3.8170   -0.0690   -2.3150 ha        1 RVA      0.101000
     26 H6          1.3510    0.2460   -1.9680 ha        1 RVA      0.138000
     27 H8          7.3710    1.0930    2.6710 ha        1 RVA      0.123000
     28 H10         3.5950    1.1900    3.3240 ha        1 RVA      0.153000
     29 H11         2.4970    3.1870    4.3090 ha        1 RVA      0.110000
     30 H12         3.8180    5.2500    4.8040 ha        1 RVA      0.100000
     31 H13         6.2590    5.3050    4.2890 ha        1 RVA      0.110000
     32 H14         7.3690    3.3190    3.2930 ha        1 RVA      0.153000
@<TRIPOS>BOND
     1    1    3 1   
     2    1   14 1   
     3    1   15 1   
     4    2   11 1   
     5    2   21 1   
     6    2   22 1   
     7    3    4 ar  
     8    3   10 ar  
     9    4    5 1   
    10    4    6 ar  
    11    5   23 1   
    12    6    7 1   
    13    6    8 ar  
    14    7   11 1   
    15    8    9 ar  
    16    8   24 1   
    17    9   10 ar  
    18    9   25 1   
    19   10   26 1   
    20   11   12 2   
    21   12   13 1   
    22   12   27 1   
    23   13   16 ar  
    24   13   20 ar  
    25   16   17 ar  
    26   16   28 1   
    27   17   18 ar  
    28   17   29 1   
    29   18   19 ar  
    30   18   30 1   
    31   19   20 ar  
    32   19   31 1   
    33   20   32 1   
@<TRIPOS>SUBSTRUCTURE
     1 RVA         1 TEMP              0 ****  ****    0 ROOT
