@<TRIPOS>MOLECULE
molecule
   32    33     1     0     0
SMALL
bcc


@<TRIPOS>ATOM
      1 C            0.0000     0.0000     0.0000 c          1 RVA       0.891200
      2 C'           6.2480    -1.3340     1.8510 c          1 RVA       0.860800
      3 C1           1.4740     0.0000     0.0000 ca         1 RVA      -0.112600
      4 C2           2.1780     0.0000     1.2110 ca         1 RVA       0.095100
      5 O2           1.5070     0.0010     2.3900 oh         1 RVA      -0.497100
      6 C3           3.5700    -0.0000     1.1980 ca         1 RVA       0.111100
      7 O3           4.2610    -0.0000     2.3680 os         1 RVA      -0.261200
      8 C4           4.2510    -0.0020    -0.0080 ca         1 RVA      -0.181000
      9 C5           3.5540    -0.0030    -1.2060 ca         1 RVA      -0.148000
     10 C6           2.1770    -0.0080    -1.2090 ca         1 RVA      -0.128000
     11 C7           5.6160    -0.0910     2.3100 ce         1 RVA       0.061900
     12 C8           6.3810     0.9610     2.6750 cf         1 RVA      -0.185200
     13 C9           5.7580     2.1480     3.2830 ca         1 RVA      -0.018800
     14 OA          -0.6730    -0.0000    -1.1670 o          1 RVA      -0.849300
     15 OB          -0.6070    -0.0030     1.0520 o          1 RVA      -0.849300
     16 C10          4.5000     2.0500     3.8850 ca         1 RVA      -0.124000
     17 C11          3.9230     3.1660     4.4520 ca         1 RVA      -0.140000
     18 C12          4.5860     4.3810     4.4270 ca         1 RVA      -0.166000
     19 C13          5.8310     4.4860     3.8330 ca         1 RVA      -0.140000
     20 C14          6.4240     3.3780     3.2670 ca         1 RVA      -0.124000
     21 OA'          7.5930    -1.4260     1.7930 o          1 RVA      -0.828800
     22 OB'          5.5590    -2.2820     1.5240 o          1 RVA      -0.828800
     23 HO2          1.4050    -0.8850     2.6950 ho         1 RVA       0.406000
     24 H4           5.3350     0.0010    -0.0150 ha         1 RVA       0.143000
     25 H5           4.0950    -0.0060    -2.1440 ha         1 RVA       0.098000
     26 H6           1.6380    -0.0090    -2.1480 ha         1 RVA       0.140000
     27 H8           7.4600     0.8850     2.6280 ha         1 RVA       0.162000
     28 H10          3.9800     1.1000     3.9050 ha         1 RVA       0.148500
     29 H11          2.9480     3.0920     4.9190 ha         1 RVA       0.109500
     30 H12          4.1260     5.2550     4.8730 ha         1 RVA       0.099000
     31 H13          6.3450     5.4400     3.8190 ha         1 RVA       0.109500
     32 H14          7.3990     3.4610     2.8020 ha         1 RVA       0.148500
@<TRIPOS>BOND
     1     1     3 1
     2     1    14 1
     3     1    15 1
     4     2    11 1
     5     2    21 1
     6     2    22 1
     7     3     4 ar
     8     3    10 ar
     9     4     5 1
    10     4     6 ar
    11     6     7 1
    12     6     8 ar
    13     7    11 1
    14     8     9 ar
    15     9    10 ar
    16    11    12 2
    17    12    13 1
    18    13    16 ar
    19    13    20 ar
    20    16    17 ar
    21    17    18 ar
    22    18    19 ar
    23    19    20 ar
    24     5    23 1
    25     8    24 1
    26     9    25 1
    27    10    26 1
    28    12    27 1
    29    16    28 1
    30    17    29 1
    31    18    30 1
    32    19    31 1
    33    20    32 1
@<TRIPOS>SUBSTRUCTURE
     1 RVA         1 TEMP              0 ****  ****    0 ROOT
