@<TRIPOS>MOLECULE
RVB
   31    31     1     0     0
SMALL
bcc


@<TRIPOS>ATOM
      1 C10         0.0770    0.4010   -0.3730 c3        1 RVB     -0.195500
      2 C11         2.2080    0.8920    0.8150 c3        1 RVB     -0.195500
      3 OA'         3.9310   -3.3660   -1.1870 o         1 RVB     -0.564000
      4 OA          2.8180    4.2570   -5.7310 o         1 RVB     -0.585000
      5 OB'         2.9420   -3.2880   -3.1870 o         1 RVB     -0.564000
      6 OB          1.0700    4.4030   -4.3570 o         1 RVB     -0.585000
      7 C8          2.0840   -0.9740   -0.7930 c2        1 RVB     -0.237000
      8 C5          1.1450   -0.0160   -5.6060 c3        1 RVB     -0.181000
      9 C4          1.9200   -0.6430   -4.5120 c2        1 RVB     -0.171000
     10 C6          1.1750    1.4460   -5.7270 c1        1 RVB     -0.133000
     11 O3          3.4540   -0.3530   -2.6600 os        1 RVB     -0.213000
     12 C'          3.2950   -2.7620   -2.0940 c2        1 RVB      0.365000
     13 C7          2.8750   -1.3180   -1.8230 c2        1 RVB      0.010000
     14 C2          2.6550    1.5980   -3.8240 c2        1 RVB      0.169000
     15 C3          2.6260    0.1430   -3.6700 c2        1 RVB     -0.044000
     16 C1          1.9330    2.2180   -4.8300 c2        1 RVB     -0.221000
     17 C9          1.5900    0.3930   -0.4780 c3        1 RVB     -0.073000
     18 H10        -0.2890    1.4340   -0.1620 hc        1 RVB      0.061667
     19 H10A        1.8890    1.0990   -1.3090 hc        1 RVB      0.107000
     20 H10B       -0.2650   -0.2750    0.4470 hc        1 RVB      0.061667
     21 H11         1.8480    1.9240    1.0420 hc        1 RVB      0.061667
     22 H11A        1.9330    0.2230    1.6650 hc        1 RVB      0.061667
     23 H11B        3.3200    0.9110    0.7260 hc        1 RVB      0.061667
     24 HO2         3.8450    1.7250   -2.3350 ho        1 RVB      0.220000
     25 H8          1.7660   -1.7670   -0.0990 ha        1 RVB      0.126000
     26 H5          1.5110   -0.4290   -6.5910 hc        1 RVB      0.120500
     27 H4          1.9190   -1.7420   -4.3860 ha        1 RVB      0.183000
     28 H6          0.0630   -0.3170   -5.5110 hc        1 RVB      0.120500
     29 H9         -0.3750    0.0520   -1.3320 hc        1 RVB      0.061667
     30 C           1.9400    3.7340   -4.9850 c2        1 RVB      0.400000
     31 O2          3.4060    2.3330   -2.9530 oh        1 RVB     -0.227000
@<TRIPOS>BOND
     1    1   17 1   
     2    1   18 1   
     3    1   20 1   
     4    1   29 1   
     5    2   17 1   
     6    2   21 1   
     7    2   22 1   
     8    2   23 1   
     9    3   12 1   
    10    4   30 1   
    11    5   12 1   
    12    6   30 1   
    13    7   13 1   
    14    7   17 1   
    15    7   25 1   
    16    8    9 1   
    17    8   10 1   
    18    8   26 1   
    19    8   28 1   
    20    9   15 1   
    21    9   27 1   
    22   10   16 1   
    23   11   13 1   
    24   11   15 1   
    25   12   13 1   
    26   14   15 1   
    27   14   16 1   
    28   14   31 1   
    29   16   30 1   
    30   17   19 1   
    31   24   31 1   
@<TRIPOS>SUBSTRUCTURE
     1 RVB         1 TEMP              0 ****  ****    0 ROOT
