@<TRIPOS>MOLECULE
molecule
   31    31     1     0     0
SMALL
bcc


@<TRIPOS>ATOM
      1 C10          0.0000     0.0000     0.0000 c3         1 RVB      -0.082100
      2 C11          2.0400     0.0000     1.4430 c3         1 RVB      -0.082100
      3 OA'          3.7270    -2.2030    -3.6450 o          1 RVB      -0.810300
      4 OA           2.0900     3.8650    -7.0020 o          1 RVB      -0.849300
      5 OB'          2.7760    -3.5360    -2.1450 o          1 RVB      -0.810300
      6 OB           3.5360     4.1330    -5.3380 o          1 RVB      -0.849300
      7 C8           2.0330    -1.2300    -0.7110 c2         1 RVB      -0.421200
      8 C5           0.8860     0.2110    -5.2480 ca         1 RVB      -0.148000
      9 C4           1.4820    -0.2160    -4.0730 ca         1 RVB      -0.179000
     10 C6           1.2670     1.3990    -5.8320 ca         1 RVB      -0.127000
     11 O3           3.0480     0.1230    -2.3180 os         1 RVB      -0.295200
     12 C'           3.1060    -2.3130    -2.6060 c          1 RVB       0.855800
     13 C7           2.7150    -1.1090    -1.8520 ce         1 RVB       0.167900
     14 C2           2.8640     1.7510    -4.0470 ca         1 RVB       0.095100
     15 C3           2.4670     0.5490    -3.4710 ca         1 RVB       0.097100
     16 C1           2.2610     2.1820    -5.2360 ca         1 RVB      -0.112600
     17 C9           1.5300     0.0000     0.0000 c3         1 RVB      -0.102500
     18 H10         -0.3610    -0.7310     0.7140 hc         1 RVB       0.025033
     19 H10A        -0.3610    -0.2530    -0.9890 hc         1 RVB       0.025033
     20 H10B        -0.3610     0.9830     0.2760 hc         1 RVB       0.025033
     21 H11          3.0740     0.3220     1.4610 hc         1 RVB       0.025033
     22 H11A         1.9660    -1.0010     1.8510 hc         1 RVB       0.025033
     23 H11B         1.4400     0.6780     2.0380 hc         1 RVB       0.025033
     24 HO2          4.6770     2.1630    -3.6920 ho         1 RVB       0.405000
     25 H8           2.6680    -0.6440    -0.0570 ha         1 RVB       0.263000
     26 H5           0.1150    -0.3940    -5.7120 ha         1 RVB       0.100000
     27 H4           1.1750    -1.1510    -3.6220 ha         1 RVB       0.146000
     28 H6           0.7970     1.7270    -6.7510 ha         1 RVB       0.141000
     29 H9           1.8910     0.8850    -0.5100 hc         1 RVB       0.053700
     30 C            2.6720     3.4550    -5.8570 c          1 RVB       0.890200
     31 O2           3.8290     2.5040    -3.4610 oh         1 RVB      -0.495100
@<TRIPOS>BOND
     1     1    17 1
     2     2    17 1
     3     3    12 1
     4     4    30 1
     5     5    12 1
     6     6    30 1
     7    31    14 1
     8     7    13 2
     9     7    17 1
    10     8     9 ar
    11     8    10 ar
    12     9    15 ar
    13    10    16 ar
    14    11    13 1
    15    11    15 1
    16    12    13 1
    17    30    16 1
    18    14    15 ar
    19    14    16 ar
    20     1    18 1
    21     1    19 1
    22     1    20 1
    23     2    21 1
    24     2    22 1
    25     2    23 1
    26    31    24 1
    27     7    25 1
    28     8    26 1
    29     9    27 1
    30    10    28 1
    31    17    29 1
@<TRIPOS>SUBSTRUCTURE
     1 RVB         1 TEMP              0 ****  ****    0 ROOT
