@<TRIPOS>MOLECULE
RVC
   29    28     1     0     0
SMALL
bcc


@<TRIPOS>ATOM
      1 OB'       294.4580  -87.4800 -261.5640 o         1 RVC     -0.540000
      2 OB       -179.4190   57.7840  166.7190 o         1 RVC     -0.566000
      3 OA'       294.3860  -89.6090 -260.8710 o         1 RVC     -0.540000
      4 OA       -179.7240   59.1960  165.0290 o         1 RVC     -0.566000
      5 C8        297.6780  -88.5760 -260.9730 c1        1 RVC     -0.247000
      6 C5       -178.9790   54.5510  163.8370 c3        1 RVC     -0.169000
      7 C4       -179.8760   54.6930  162.6680 c2        1 RVC     -0.261000
      8 C6       -178.8270   55.7110  164.7230 c1        1 RVC     -0.091000
      9 C10       300.3050  -88.8690 -261.6220 cx        1 RVC     -0.158000
     10 C11       300.1720  -88.4200 -260.2140 cu        1 RVC     -0.271000
     11 O3       -181.3240   56.1050  161.3510 oh        1 RVC     -0.243000
     12 C'        295.0000  -88.5500 -261.1740 c2        1 RVC      0.409000
     13 C7        296.4770  -88.5650 -261.0640 c1        1 RVC     -0.027000
     14 C2       -180.3180   57.0210  163.3290 c2        1 RVC      0.211000
     15 C3       -180.4870   55.8760  162.4240 c2        1 RVC      0.022000
     16 C1       -179.5710   56.8760  164.4920 c2        1 RVC     -0.294000
     17 C9        299.0380  -88.5910 -260.8780 cu        1 RVC      0.055000
     18 HO2      -180.7470   58.8790  163.5550 ho        1 RVC      0.301000
     19 H8       -181.3840   55.2790  160.8510 ho        1 RVC      0.194000
     20 H5       -177.9460   54.2810  163.4750 hc        1 RVC      0.122500
     21 H4       -180.0330   53.8200  162.0220 ha        1 RVC      0.105000
     22 H6       -179.3320   53.6950  164.4820 hc        1 RVC      0.122500
     23 H10      -179.5750   55.5110  166.9630 ha        1 RVC      0.000500
     24 H10A     -179.8340   54.9090  167.1530 ha        1 RVC      0.000500
     25 H11       300.6530  -88.1700 -262.4060 hc        1 RVC      0.073000
     26 H11A      300.5940  -89.9100 -261.8570 hc        1 RVC      0.073000
     27 H9        300.7060  -88.1580 -259.3290 ha        1 RVC      0.172000
     28 C        -179.5490   58.0170  165.4930 c2        1 RVC      0.382000
     29 O2       -180.9260   58.1470  162.9060 oh        1 RVC     -0.271000
@<TRIPOS>BOND
     1    1   12 1   
     2    2   28 1   
     3    3   12 1   
     4    4   28 1   
     5    5   13 1   
     6    5   17 1   
     7    6    7 1   
     8    6    8 1   
     9    6   20 1   
    10    6   22 1   
    11    7   15 1   
    12    7   21 1   
    13    8   16 1   
    14    9   10 1   
    15    9   17 1   
    16    9   25 1   
    17    9   26 1   
    18   10   17 1   
    19   10   27 1   
    20   11   15 1   
    21   11   19 1   
    22   12   13 1   
    23   14   15 1   
    24   14   16 1   
    25   14   29 1   
    26   16   28 1   
    27   18   29 1   
    28   23   24 1   
@<TRIPOS>SUBSTRUCTURE
     1 RVC         1 TEMP              0 ****  ****    0 ROOT
