@<TRIPOS>MOLECULE
molecule
   29    30     1     0     0
SMALL
bcc


@<TRIPOS>ATOM
      1 OB'          0.0000     0.0000     0.0000 o          1 RVC      -0.804800
      2 OB          -2.5850     3.3540     5.7290 o          1 RVC      -0.849300
      3 OA'          1.8900     0.0010    -1.1670 o          1 RVC      -0.804800
      4 OA          -1.9240     1.2750     6.1410 o          1 RVC      -0.849300
      5 C8           3.2860    -0.0000     1.2770 c2         1 RVC      -0.383200
      6 C5          -0.1410     3.3530     2.2780 ca         1 RVC      -0.147000
      7 C4           0.5990     2.2250     1.9620 ca         1 RVC      -0.178000
      8 C6          -0.9420     3.3680     3.3990 ca         1 RVC      -0.126000
      9 C10          4.8880     1.3670     2.7950 cx         1 RVC      -0.151900
     10 C11          5.5650     0.0240     2.5200 cx         1 RVC      -0.151900
     11 O3           1.2710    -0.0020     2.4540 os         1 RVC      -0.291200
     12 C'           1.2150     0.0000     0.0000 c          1 RVC       0.852800
     13 C7           1.9510     0.0000     1.2770 ce         1 RVC       0.181900
     14 C2          -0.2630     1.1020     3.9060 ca         1 RVC       0.096100
     15 C3           0.5420     1.1020     2.7700 ca         1 RVC       0.103100
     16 C1          -1.0110     2.2430     4.2250 ca         1 RVC      -0.116600
     17 C9           4.0390     0.1130     2.5770 cx         1 RVC      -0.127500
     18 HO2          0.3630     0.0440     5.3470 ho         1 RVC       0.395000
     19 H8           3.4670    -0.8580     1.9130 ha         1 RVC       0.251000
     20 H5          -0.0900     4.2270     1.6410 ha         1 RVC       0.100000
     21 H4           1.2270     2.2230     1.0790 ha         1 RVC       0.146000
     22 H6          -1.5180     4.2530     3.6410 ha         1 RVC       0.140000
     23 H10          4.8990     2.0730     1.9740 hc         1 RVC       0.062700
     24 H10A         4.9470     1.7200     3.8180 hc         1 RVC       0.062700
     25 H11          6.0380    -0.4450     3.3740 hc         1 RVC       0.062700
     26 H11A         5.9900    -0.0920     1.5300 hc         1 RVC       0.062700
     27 H9           3.5940    -0.2960     3.4760 hc         1 RVC       0.058700
     28 C           -1.8670     2.2550     5.4260 c          1 RVC       0.891200
     29 O2          -0.3220     0.0030     4.7000 oh         1 RVC      -0.487100
@<TRIPOS>BOND
     1     1    12 1
     2     2    28 1
     3     3    12 1
     4     4    28 1
     5    29    14 1
     6     5    13 2
     7     5    17 1
     8     6     7 ar
     9     6     8 ar
    10     7    15 ar
    11     8    16 ar
    12     9    10 1
    13     9    17 1
    14    10    17 1
    15    11    13 1
    16    11    15 1
    17    12    13 1
    18    28    16 1
    19    14    15 ar
    20    14    16 ar
    21    29    18 1
    22     5    19 1
    23     6    20 1
    24     7    21 1
    25     8    22 1
    26     9    23 1
    27     9    24 1
    28    10    25 1
    29    10    26 1
    30    17    27 1
@<TRIPOS>SUBSTRUCTURE
     1 RVC         1 TEMP              0 ****  ****    0 ROOT
