@<TRIPOS>MOLECULE
RVD
   28    28     1     0     0
SMALL
bcc


@<TRIPOS>ATOM
      1 CAA         0.5760   -1.0000   -0.5250 c3        1 RVD     -0.196000
      2 OAB         1.8910   -1.0480    4.4320 o         1 RVD     -0.564500
      3 OAC         7.2060   -4.3450   -1.9680 o         1 RVD     -0.585000
      4 OAD         4.0310   -0.4470    4.2220 o         1 RVD     -0.564500
      5 OAE         6.1350   -2.7900   -3.1500 o         1 RVD     -0.585000
      6 CAG         2.0580   -0.5860    1.4150 c2        1 RVD     -0.242000
      7 CAH         6.9860   -0.7480    0.8770 c3        1 RVD     -0.181000
      8 CAI         5.7360   -0.9960    1.6290 c2        1 RVD     -0.172000
      9 CAJ         7.2220   -1.5200   -0.3490 c1        1 RVD     -0.133000
     10 CAK         1.9920   -0.7780   -0.0500 c3        1 RVD     -0.123000
     11 OAL         3.6960   -2.2830    1.8470 os        1 RVD     -0.212000
     12 CAM         2.9460   -0.8950    3.7560 c2        1 RVD      0.366000
     13 CAO         2.8860   -1.2160    2.2640 c2        1 RVD      0.009000
     14 CAP         5.1320   -2.6930   -0.0430 c2        1 RVD      0.170000
     15 CAQ         4.8630   -1.9190    1.1700 c2        1 RVD     -0.044000
     16 CAR         6.2860   -2.4760   -0.7780 c2        1 RVD     -0.221000
     17 HAA         0.5570   -1.1340   -1.6340 hc        1 RVD      0.057667
     18 HAAA        0.1420   -1.9110   -0.0490 hc        1 RVD      0.057667
     19 HAAB       -0.0700   -0.1280   -0.2610 hc        1 RVD      0.057667
     20 HOAF        3.5010   -3.6530    0.2140 ho        1 RVD      0.220000
     21 HAG         1.3560    0.1520    1.8350 ha        1 RVD      0.124000
     22 HAH         7.8640   -0.9470    1.5580 hc        1 RVD      0.120000
     23 HAI         5.5180   -0.4300    2.5540 ha        1 RVD      0.181000
     24 HAJ         7.0360    0.3430    0.5940 hc        1 RVD      0.120000
     25 HAK         2.4140    0.1320   -0.5580 hc        1 RVD      0.084500
     26 HAKA        2.6340   -1.6490   -0.3610 hc        1 RVD      0.084500
     27 CAN         6.5640   -3.2590   -2.0560 c2        1 RVD      0.400000
     28 OAF         4.2220   -3.6290   -0.4380 oh        1 RVD     -0.227000
@<TRIPOS>BOND
     1    1   10 1   
     2    1   17 1   
     3    1   18 1   
     4    1   19 1   
     5    2   12 1   
     6    3   27 1   
     7    4   12 1   
     8    5   27 1   
     9    6   10 1   
    10    6   13 1   
    11    6   21 1   
    12    7    8 1   
    13    7    9 1   
    14    7   22 1   
    15    7   24 1   
    16    8   15 1   
    17    8   23 1   
    18    9   16 1   
    19   10   25 1   
    20   10   26 1   
    21   11   13 1   
    22   11   15 1   
    23   12   13 1   
    24   14   15 1   
    25   14   16 1   
    26   14   28 1   
    27   16   27 1   
    28   20   28 1   
@<TRIPOS>SUBSTRUCTURE
     1 RVD         1 TEMP              0 ****  ****    0 ROOT
