@<TRIPOS>MOLECULE
molecule
   28    28     1     0     0
SMALL
bcc


@<TRIPOS>ATOM
      1 CAA          0.0000     0.0000     0.0000 c3         1 RVD      -0.049100
      2 OAB          3.9660    -1.9330     3.6480 o          1 RVD      -0.802800
      3 OAC          8.4580    -3.8590    -1.5890 o          1 RVD      -0.846800
      4 OAD          2.7630    -0.1310     4.1370 o          1 RVD      -0.802800
      5 OAE          6.4460    -4.7880    -1.7300 o          1 RVD      -0.846800
      6 CAG          2.0320     0.0000     1.4220 c2         1 RVD      -0.553200
      7 CAH          6.7930    -0.8300     0.8470 ca         1 RVD      -0.146000
      8 CAI          5.4420    -0.8590     1.1490 ca         1 RVD      -0.197000
      9 CAJ          7.3510    -1.8100     0.0540 ca         1 RVD      -0.126000
     10 CAK          1.5300     0.0000     0.0000 c3         1 RVD      -0.063200
     11 OAL          3.3110    -1.8970     0.9630 os         1 RVD      -0.323200
     12 CAM          3.2280    -1.0470     3.2630 c          1 RVD       0.849800
     13 CAO          2.8420    -0.9740     1.8430 ce         1 RVD       0.239900
     14 CAP          5.1850    -2.8720    -0.1410 ca         1 RVD       0.100100
     15 CAQ          4.6360    -1.8740     0.6600 ca         1 RVD       0.114100
     16 CAR          6.5500    -2.8420    -0.4480 ca         1 RVD      -0.109600
     17 HAA         -0.3610     0.9610     0.3450 hc         1 RVD       0.019700
     18 HAAA        -0.3610    -0.7790     0.6600 hc         1 RVD       0.019700
     19 HAAB        -0.3610    -0.1820    -1.0050 hc         1 RVD       0.019700
     20 HOAF         4.2790    -4.5240     0.0440 ho         1 RVD       0.408000
     21 HAG          2.6260     0.3990     0.6080 ha         1 RVD       0.283000
     22 HAH          7.4150    -0.0320     1.2340 ha         1 RVD       0.101000
     23 HAI          5.0130    -0.0840     1.7730 ha         1 RVD       0.140000
     24 HAJ          8.4080    -1.7820    -0.1790 ha         1 RVD       0.143000
     25 HAK          1.8910    -0.8850    -0.5110 hc         1 RVD       0.015700
     26 HAKA         1.8910     0.8850    -0.5110 hc         1 RVD       0.015700
     27 CAN          7.1430    -3.8920    -1.2960 c          1 RVD       0.889200
     28 OAF          4.3990    -3.8690    -0.6220 oh         1 RVD      -0.493100
@<TRIPOS>BOND
     1     1    10 1
     2     2    12 1
     3     3    27 1
     4     4    12 1
     5     5    27 1
     6    28    14 1
     7     6    10 1
     8     6    13 2
     9     7     8 ar
    10     7     9 ar
    11     8    15 ar
    12     9    16 ar
    13    11    13 1
    14    11    15 1
    15    12    13 1
    16    27    16 1
    17    14    15 ar
    18    14    16 ar
    19     1    17 1
    20     1    18 1
    21     1    19 1
    22    28    20 1
    23     6    21 1
    24     7    22 1
    25     8    23 1
    26     9    24 1
    27    10    25 1
    28    10    26 1
@<TRIPOS>SUBSTRUCTURE
     1 RVD         1 TEMP              0 ****  ****    0 ROOT
