@<TRIPOS>MOLECULE
RVE
   22    22     1     0     0
SMALL
bcc


@<TRIPOS>ATOM
      1 C8          0.5760   -1.1370   -0.1800 c2        1 RVE     -0.385000
      2 OA'         0.5630    1.7940   -1.3480 o         1 RVE     -0.829800
      3 OB          4.3000   -0.8910    5.2500 o         1 RVE     -0.851300
      4 OB'         2.1300    0.7070   -2.5070 o         1 RVE     -0.829800
      5 OA          4.9260   -3.0170    5.1700 o         1 RVE     -0.851300
      6 O2          3.2160    0.2410    3.0060 oh        1 RVE     -0.519100
      7 C5          3.8420   -3.4490    1.1710 ca        1 RVE     -0.206000
      8 C4          3.2860   -2.3840    0.4640 ca        1 RVE     -0.140000
      9 C6          4.2020   -3.2870    2.5040 ca        1 RVE     -0.094000
     10 O3          2.6540   -0.0410    0.3830 os        1 RVE     -0.225200
     11 C'          1.4050    0.8660   -1.4870 c         1 RVE      0.927800
     12 C           4.4400   -1.9860    4.6190 c         1 RVE      0.916200
     13 C7          1.5040   -0.1900   -0.3780 ce        1 RVE      0.056900
     14 C3          3.0870   -1.1560    1.0980 ca        1 RVE      0.045100
     15 C2          3.4470   -0.9910    2.4630 ca        1 RVE      0.167100
     16 C1          4.0170   -2.0700    3.1680 ca        1 RVE     -0.218600
     17 H8          0.6670   -1.9130    0.5850 ha        1 RVE      0.100500
     18 H8A        -0.3320   -1.1580   -0.7890 ha        1 RVE      0.100500
     19 HO2         3.5210    0.2350    3.9350 ho        1 RVE      0.465000
     20 HAG         3.9950   -4.4140    0.6690 ha        1 RVE      0.096000
     21 HAH         2.9910   -2.4900   -0.5900 ha        1 RVE      0.136000
     22 HAI         4.6440   -4.1190    3.0760 ha        1 RVE      0.138000
@<TRIPOS>BOND
     1    1   13 2   
     2    1   17 1   
     3    1   18 1   
     4    2   11 1   
     5    3   12 1   
     6    4   11 1   
     7    5   12 1   
     8    6   15 1   
     9    6   19 1   
    10    7    8 ar  
    11    7    9 ar  
    12    7   20 1   
    13    8   14 ar  
    14    8   21 1   
    15    9   16 ar  
    16    9   22 1   
    17   10   13 1   
    18   10   14 1   
    19   11   13 1   
    20   12   16 1   
    21   14   15 ar  
    22   15   16 ar  
@<TRIPOS>SUBSTRUCTURE
     1 RVE         1 TEMP              0 ****  ****    0 ROOT
