@<TRIPOS>MOLECULE
molecule
   22    22     1     0     0
SMALL
bcc


@<TRIPOS>ATOM
      1 C8           0.0000     0.0000     0.0000 c2         1 RVE      -0.283000
      2 OA'          1.3960    -0.0000    -2.4430 o          1 RVE      -0.834300
      3 OB           5.2290    -1.2660     4.8520 o          1 RVE      -0.850800
      4 OB'          3.2860    -0.0010    -1.2770 o          1 RVE      -0.834300
      5 OA           5.9000    -3.3410     4.4320 o          1 RVE      -0.850800
      6 O2           3.6150    -0.0000     3.4190 oh         1 RVE      -0.480100
      7 C5           3.4470    -3.3450     0.9890 ca         1 RVE      -0.150000
      8 C4           2.6990    -2.2210     0.6780 ca         1 RVE      -0.183000
      9 C6           4.2510    -3.3590     2.1070 ca         1 RVE      -0.132000
     10 O3           2.0140     0.0000     1.1770 os         1 RVE      -0.264200
     11 C'           2.0710    -0.0000    -1.2760 c          1 RVE       0.862800
     12 C            5.1740    -2.2460     4.1340 c          1 RVE       0.891200
     13 C7           1.3340     0.0000     0.0000 ce         1 RVE       0.034900
     14 C3           2.7520    -1.1000     1.4890 ca         1 RVE       0.110100
     15 C2           3.5600    -1.0980     2.6220 ca         1 RVE       0.094100
     16 C1           4.3150    -2.2350     2.9360 ca         1 RVE      -0.110600
     17 H8          -0.5420    -0.0000    -0.9380 ha         1 RVE       0.107500
     18 H8A         -0.5420     0.0000     0.9380 ha         1 RVE       0.107500
     19 HO2          2.8220     0.0600     3.9260 ho         1 RVE       0.389000
     20 HAG          3.3980    -4.2180     0.3500 ha         1 RVE       0.096000
     21 HAH          2.0630    -2.2230    -0.1990 ha         1 RVE       0.143000
     22 HAI          4.8520    -4.2320     2.3310 ha         1 RVE       0.139000
@<TRIPOS>BOND
     1     1    13 2
     2     2    11 1
     3     3    12 1
     4     4    11 1
     5     5    12 1
     6     6    15 1
     7     7     8 ar
     8     7     9 ar
     9     8    14 ar
    10     9    16 ar
    11    10    13 1
    12    10    14 1
    13    11    13 1
    14    12    16 1
    15    14    15 ar
    16    15    16 ar
    17     1    17 1
    18     1    18 1
    19     6    19 1
    20     7    20 1
    21     8    21 1
    22     9    22 1
@<TRIPOS>SUBSTRUCTURE
     1 RVE         1 TEMP              0 ****  ****    0 ROOT
