@<TRIPOS>MOLECULE
RVI
   70    73     1     0     0
SMALL
bcc


@<TRIPOS>ATOM
      1 C4           0.0000     0.0000     0.0000 cp         1 RVI      -0.036000
      2 C5           1.3940     0.0000     0.0000 ca         1 RVI      -0.074300
      3 C6           2.0810     0.0000     1.1980 ca         1 RVI      -0.102000
      4 C7          -0.7440    -0.0060    -1.2830 cp         1 RVI      -0.040000
      5 C8          -0.4170     0.9220    -2.2840 ca         1 RVI      -0.086000
      6 C10         -1.7530    -0.9310    -1.4880 ca         1 RVI      -0.068000
      7 C15         -4.1270    -1.8040    -4.1500 ca         1 RVI      -0.233600
      8 C17          2.1480    -0.0010    -1.3030 c3         1 RVI       0.049200
      9 C20         -6.5890    -2.0890    -4.2420 c3         1 RVI      -0.111700
     10 C21         -7.6980    -3.0920    -4.4280 c          1 RVI       0.574100
     11 C24         -9.6690    -5.3040    -2.1810 c3         1 RVI      -0.066700
     12 C26         -8.9200    -6.5300    -0.1380 c3         1 RVI      -0.022900
     13 C28        -11.2410    -6.8510    -1.0050 c3         1 RVI      -0.022900
     14 C25         -8.4830    -5.9920    -1.5010 c3         1 RVI      -0.021900
     15 C27        -10.0550    -7.5390    -0.3260 c3         1 RVI      -0.025400
     16 C29        -10.8040    -6.3120    -2.3700 c3         1 RVI      -0.021900
     17 C23         -9.2320    -4.7660    -3.5450 c3         1 RVI       0.051000
     18 N22         -8.2290    -3.7140    -3.3580 ns         1 RVI      -0.203900
     19 O30         -8.1120    -3.3380    -5.5410 o          1 RVI      -0.646100
     20 C31         -6.7520    -0.9540    -5.2560 c3         1 RVI      -0.059400
     21 C32         -8.0610    -0.2110    -4.9850 c3         1 RVI      -0.035400
     22 C33         -8.1580     1.0040    -5.9090 c3         1 RVI       0.008900
     23 C19         -5.2390    -2.7750    -4.4560 c3         1 RVI       0.053900
     24 C14         -3.7500    -0.8450    -5.1030 ca         1 RVI       0.516200
     25 N13         -2.7830     0.0170    -4.8660 nb         1 RVI      -0.621000
     26 N18         -4.4120    -0.8040    -6.3200 nv         1 RVI      -0.605500
     27 C16         -3.4860    -1.8570    -2.9490 ca         1 RVI      -0.039000
     28 C11         -2.4510    -0.9300    -2.7030 ca         1 RVI      -0.172300
     29 C12         -2.1170     0.0140    -3.7060 ca         1 RVI       0.402600
     30 C9          -1.0830     0.9370    -3.4670 ca         1 RVI      -0.153300
     31 C3          -0.6920     0.0010     1.2100 ca         1 RVI      -0.090000
     32 C2           0.0050     0.0000     2.4010 ca         1 RVI      -0.108000
     33 C1           1.3890     0.0000     2.3950 ca         1 RVI      -0.097000
     34 H6           3.1640    -0.0000     1.2000 ha         1 RVI       0.106000
     35 H8           0.3740     1.6410    -2.1070 ha         1 RVI       0.115000
     36 H10         -2.0900    -1.5550    -0.6690 ha         1 RVI       0.112000
     37 H17          3.1470    -0.3880    -1.1420 hc         1 RVI       0.013367
     38 H17A         1.6300    -0.6260    -2.0200 hc         1 RVI       0.013367
     39 H17B         2.2100     1.0110    -1.6850 hc         1 RVI       0.013367
     40 H20         -6.6330    -1.6840    -3.2380 hc         1 RVI       0.031700
     41 H24        -10.0140    -4.4870    -1.5590 hc         1 RVI       0.031700
     42 H26         -8.0810    -7.0190     0.3420 hc         1 RVI       0.014200
     43 H26A        -9.2670    -5.7100     0.4790 hc         1 RVI       0.014200
     44 H28        -12.0430    -7.5660    -1.1410 hc         1 RVI       0.014200
     45 H28A       -11.5830    -6.0290    -0.3870 hc         1 RVI       0.014200
     46 H25         -8.1410    -6.8130    -2.1190 hc         1 RVI       0.017450
     47 H25A        -7.6810    -5.2760    -1.3650 hc         1 RVI       0.017450
     48 H27        -10.3650    -7.9170     0.6410 hc         1 RVI       0.014700
     49 H27A        -9.7100    -8.3570    -0.9460 hc         1 RVI       0.014700
     50 H29        -11.6440    -5.8230    -2.8490 hc         1 RVI       0.017450
     51 H29A       -10.4580    -7.1330    -2.9870 hc         1 RVI       0.017450
     52 H23         -8.8060    -5.5710    -4.1310 h1         1 RVI       0.028700
     53 H23A       -10.0910    -4.3570    -4.0640 h1         1 RVI       0.028700
     54 HN22        -7.9670    -3.4320    -2.4340 hn         1 RVI       0.178500
     55 H31         -6.7720    -1.3660    -6.2580 hc         1 RVI       0.045700
     56 H31A        -5.9200    -0.2660    -5.1650 hc         1 RVI       0.045700
     57 H32         -8.0820     0.1170    -3.9530 hc         1 RVI       0.015700
     58 H32A        -8.8970    -0.8740    -5.1700 hc         1 RVI       0.015700
     59 H33         -9.1160     1.4900    -5.7670 hc         1 RVI      -0.000300
     60 H33A        -8.0670     0.6830    -6.9400 hc         1 RVI      -0.000300
     61 H33B        -7.3620     1.7010    -5.6760 hc         1 RVI      -0.000300
     62 H19         -5.1610    -3.6320    -3.7980 hc         1 RVI       0.024200
     63 H19A        -5.1590    -3.1030    -5.4850 hc         1 RVI       0.024200
     64 HN18        -4.4950    -1.6360    -6.8710 hn         1 RVI       0.284800
     65 HN1A        -4.7350     0.0700    -6.6840 hn         1 RVI       0.284800
     66 H16         -3.5950    -2.7280    -2.3150 ha         1 RVI       0.112000
     67 H9          -0.8170     1.6600    -4.2290 ha         1 RVI       0.118000
     68 H3          -1.7750     0.0010     1.2150 ha         1 RVI       0.107000
     69 H2          -0.5310     0.0010     3.3420 ha         1 RVI       0.102000
     70 H1           1.9320     0.0000     3.3320 ha         1 RVI       0.101000
@<TRIPOS>BOND
     1     1     2 ar  
     2     1     4 1   
     3     1    31 ar  
     4     2     3 ar  
     5     2     8 1   
     6     3    33 ar  
     7     3    34 1   
     8     4     5 ar  
     9     4     6 ar  
    10     5    30 ar  
    11     5    35 1   
    12     6    28 ar  
    13     6    36 1   
    14     7    23 1   
    15     7    24 ar  
    16     7    27 ar  
    17     8    37 1   
    18     8    38 1   
    19     8    39 1   
    20     9    10 1   
    21     9    20 1   
    22     9    23 1   
    23     9    40 1   
    24    10    18 1   
    25    10    19 2   
    26    11    14 1   
    27    11    16 1   
    28    11    17 1   
    29    11    41 1   
    30    12    14 1   
    31    12    15 1   
    32    12    42 1   
    33    12    43 1   
    34    13    15 1   
    35    13    16 1   
    36    13    44 1   
    37    13    45 1   
    38    14    46 1   
    39    14    47 1   
    40    15    48 1   
    41    15    49 1   
    42    16    50 1   
    43    16    51 1   
    44    17    18 1   
    45    17    52 1   
    46    17    53 1   
    47    18    54 1   
    48    20    21 1   
    49    20    55 1   
    50    20    56 1   
    51    21    22 1   
    52    21    57 1   
    53    21    58 1   
    54    22    59 1   
    55    22    60 1   
    56    22    61 1   
    57    23    62 1   
    58    23    63 1   
    59    24    25 ar  
    60    24    26 1   
    61    25    29 ar  
    62    26    64 1   
    63    26    65 1   
    64    27    28 ar  
    65    27    66 1   
    66    28    29 ar  
    67    29    30 ar  
    68    30    67 1   
    69    31    32 ar  
    70    31    68 1   
    71    32    33 ar  
    72    32    69 1   
    73    33    70 1   
@<TRIPOS>SUBSTRUCTURE
     1 RVI         1 TEMP              0 ****  ****    0 ROOT
