@<TRIPOS>MOLECULE
molecule
   33    36     1     0     0
SMALL
bcc


@<TRIPOS>ATOM
      1 O1           0.0000     0.0000     0.0000 o          1 RVN      -0.630500
      2 C2           1.2170     0.0000     0.0000 c          1 RVN       0.720700
      3 C4           1.6980    -0.0140    -2.5020 ce         1 RVN       0.112800
      4 C5           2.6880     0.1920    -3.5590 ca         1 RVN      -0.098800
      5 C6           3.6120     1.2360    -3.4620 ca         1 RVN      -0.103000
      6 C7           4.5460     1.4320    -4.4590 ca         1 RVN      -0.155000
      7 C8           4.5800     0.5970    -5.5680 ca         1 RVN       0.038100
      8 O9           5.3930     0.5890    -6.6640 os         1 RVN      -0.348900
      9 C10          4.7090    -0.2140    -7.6440 c3         1 RVN       0.326200
     10 O11          3.9090    -1.1120    -6.8530 os         1 RVN      -0.298900
     11 C12          3.6660    -0.4520    -5.6870 ca         1 RVN       0.055100
     12 C13          2.7190    -0.6660    -4.6830 ca         1 RVN      -0.022600
     13 C14          1.7570    -1.7750    -4.7970 c          1 RVN       0.878200
     14 O15          0.6880    -1.5970    -5.3470 o          1 RVN      -0.815800
     15 O16          2.0600    -2.9860    -4.2890 o          1 RVN      -0.815800
     16 C17          3.4660    -0.0050    -0.6610 ca         1 RVN      -0.046800
     17 C18          3.3530    -0.0000     0.7350 ca         1 RVN       0.044600
     18 N19          2.0080     0.0000     1.0860 ns         1 RVN      -0.461100
     19 C20          4.5110     0.0020     1.5060 ca         1 RVN      -0.167000
     20 C21          5.7490     0.0000     0.8960 ca         1 RVN      -0.135000
     21 C22          5.8570    -0.0040    -0.4830 ca         1 RVN      -0.182000
     22 C23          4.7190    -0.0070    -1.2660 ca         1 RVN      -0.078000
     23 C3           2.0840    -0.0070    -1.1920 cd         1 RVN      -0.210400
     24 H19          1.6720     0.0000     2.0290 hn         1 RVN       0.326500
     25 H4           0.6430    -0.0160    -2.7500 ha         1 RVN       0.171000
     26 H6           3.5730     1.9150    -2.6190 ha         1 RVN       0.133000
     27 H7           5.2580     2.2430    -4.3760 ha         1 RVN       0.123000
     28 H101         5.4290    -0.7780    -8.2240 h2         1 RVN       0.056700
     29 H102         4.0670     0.4130    -8.2500 h2         1 RVN       0.056700
     30 H23          5.1790    -0.5630    -2.0740 ha         1 RVN       0.170000
     31 H20          4.5210     0.0300     2.5890 ha         1 RVN       0.117000
     32 H21          6.6440    -0.0010     1.5070 ha         1 RVN       0.115000
     33 H22          6.8860    -0.0470    -0.8190 ha         1 RVN       0.124000
@<TRIPOS>BOND
     1     1     2 2
     2     2    18 1
     3     2    23 1
     4     3     4 1
     5     3    23 2
     6     4     5 ar
     7     4    12 ar
     8     5     6 ar
     9     6     7 ar
    10     7     8 1
    11     7    11 ar
    12     8     9 1
    13     9    10 1
    14    10    11 1
    15    11    12 ar
    16    12    13 1
    17    13    14 1
    18    13    15 1
    19    16    17 ar
    20    16    22 ar
    21    16    23 1
    22    17    18 1
    23    17    19 ar
    24    19    20 ar
    25    20    21 ar
    26    21    22 ar
    27    18    24 1
    28     3    25 1
    29     5    26 1
    30     6    27 1
    31     9    28 1
    32     9    29 1
    33    22    30 1
    34    19    31 1
    35    20    32 1
    36    21    33 1
@<TRIPOS>SUBSTRUCTURE
     1 RVN         1 TEMP              0 ****  ****    0 ROOT
