@<TRIPOS>MOLECULE
RVP
   32    33     1     0     0
SMALL
bcc


@<TRIPOS>ATOM
      1 P           0.3890   -0.4890   -0.5900 p5        1 RVP      1.334900
      2 O1P         1.0040   -0.5530   -1.9760 o         1 RVP     -0.928167
      3 O2P         1.3240   -0.5800    0.5730 o         1 RVP     -0.928167
      4 O3P        -0.7970    0.4260   -0.4960 o         1 RVP     -0.928167
      5 O5'        -0.3940   -2.0530   -0.6200 os        1 RVP     -0.552200
      6 C5'        -1.3430   -2.1680   -1.5940 c3        1 RVP      0.228400
      7 C4'        -0.7970   -2.9870   -2.7890 c3        1 RVP      0.050100
      8 O4'        -1.8560   -3.8060   -3.3560 os        1 RVP     -0.431600
      9 C3'        -0.2070   -2.1220   -3.9190 c3        1 RVP      0.129100
     10 O3'         1.1820   -2.3170   -4.0290 oh        1 RVP     -0.683800
     11 C2'        -0.8840   -2.6140   -5.2190 c3        1 RVP      0.102100
     12 O2'        -0.0720   -3.4100   -6.0550 oh        1 RVP     -0.616800
     13 C1'        -2.0700   -3.5020   -4.7170 c3        1 RVP      0.228800
     14 N9         -3.3880   -2.8330   -4.8530 na        1 RVP     -0.047400
     15 C8         -3.9790   -1.9840   -3.8920 cc        1 RVP      0.436400
     16 N7         -5.1840   -1.5740   -4.3430 nd        1 RVP     -0.712000
     17 C5         -5.2970   -2.2080   -5.6010 cd        1 RVP      0.415500
     18 C6         -6.4790   -2.0580   -6.4860 c         1 RVP      0.620600
     19 O6         -6.8260   -2.9240   -7.3160 o         1 RVP     -0.629100
     20 N1         -7.1960   -0.8880   -6.3780 n         1 RVP     -0.668000
     21 N4         -4.1970   -2.9780   -5.9010 nc        1 RVP     -0.464800
     22 H5'1       -2.2370   -2.7350   -1.1940 h1        1 RVP     -0.002300
     23 H5'2       -1.6830   -1.1520   -1.9500 h1        1 RVP     -0.002300
     24 H4'        -0.0320   -3.7200   -2.4150 h1        1 RVP      0.081700
     25 H3'        -0.4250   -1.0300   -3.7460 h1        1 RVP      0.118700
     26 HO'3        1.5800   -1.7610   -3.3130 ho        1 RVP      0.517000
     27 H2'        -1.2310   -1.7600   -5.8560 h1        1 RVP      0.071700
     28 HO'2        0.7020   -3.6830   -5.5430 ho        1 RVP      0.432000
     29 H1'        -2.1200   -4.4800   -5.2780 h2        1 RVP      0.090700
     30 HC8        -3.4850   -1.7280   -2.9380 h5        1 RVP      0.122100
     31 HN1        -7.0010   -0.2400   -5.6570 hn        1 RVP      0.309000
     32 HN2        -8.0430   -0.8020   -6.8780 hn        1 RVP      0.309000
@<TRIPOS>BOND
     1    1    2 1   
     2    1    3 1   
     3    1    4 1   
     4    1    5 1   
     5    5    6 1   
     6    6    7 1   
     7    6   22 1   
     8    6   23 1   
     9    7    8 1   
    10    7    9 1   
    11    7   24 1   
    12    8   13 1   
    13    9   10 1   
    14    9   11 1   
    15    9   25 1   
    16   10   26 1   
    17   11   12 1   
    18   11   13 1   
    19   11   27 1   
    20   12   28 1   
    21   13   14 1   
    22   13   29 1   
    23   14   15 1   
    24   14   21 1   
    25   15   16 2   
    26   15   30 1   
    27   16   17 1   
    28   17   18 1   
    29   17   21 2   
    30   18   19 2   
    31   18   20 1   
    32   20   31 1   
    33   20   32 1   
@<TRIPOS>SUBSTRUCTURE
     1 RVP         1 TEMP              0 ****  ****    0 ROOT
