@<TRIPOS>MOLECULE
molecule
   20    21     1     0     0
SMALL
bcc


@<TRIPOS>ATOM
      1 C2           0.0000     0.0000     0.0000 ca         1 RW1       0.684900
      2 N3           1.3180     0.0000     0.0000 nb         1 RW1      -0.743000
      3 C4           2.0010     0.0000     1.1350 ca         1 RW1       0.459200
      4 C5           1.3140    -0.0000     2.3360 ca         1 RW1      -0.375600
      5 N1          -0.6960     0.0000     1.1180 nb         1 RW1      -0.741000
      6 C6          -0.0830     0.0000     2.3000 cp         1 RW1       0.524800
      7 C7          -0.8690     0.0000     3.5580 cp         1 RW1      -0.161500
      8 C8          -2.2620    -0.0010     3.5120 ca         1 RW1      -0.093000
      9 C12         -0.2170    -0.0070     4.7900 ca         1 RW1      -0.093000
     10 C11         -0.9540    -0.0070     5.9570 ca         1 RW1      -0.137000
     11 C10         -2.3360    -0.0020     5.9050 ca         1 RW1      -0.111000
     12 C9          -2.9890    -0.0010     4.6850 ca         1 RW1      -0.137000
     13 H2          -0.5260     0.0000    -0.9470 h5         1 RW1       0.060100
     14 H4           3.0840    -0.0000     1.1230 h4         1 RW1       0.030100
     15 H5           1.8460    -0.0000     3.2800 ha         1 RW1       0.148000
     16 H8          -2.7740    -0.0000     2.5570 ha         1 RW1       0.143500
     17 H12          0.8650    -0.0110     4.8320 ha         1 RW1       0.143500
     18 H11         -0.4490    -0.0100     6.9150 ha         1 RW1       0.134000
     19 H10         -2.9100    -0.0020     6.8240 ha         1 RW1       0.131000
     20 H9          -4.0710     0.0010     4.6510 ha         1 RW1       0.134000
@<TRIPOS>BOND
     1     1     2 ar
     2     1     5 ar
     3     2     3 ar
     4     3     4 ar
     5     4     6 ar
     6     5     6 ar
     7     6     7 1
     8     7     8 ar
     9     7     9 ar
    10     8    12 ar
    11     9    10 ar
    12    10    11 ar
    13    11    12 ar
    14     1    13 1
    15     3    14 1
    16     4    15 1
    17     8    16 1
    18     9    17 1
    19    10    18 1
    20    11    19 1
    21    12    20 1
@<TRIPOS>SUBSTRUCTURE
     1 RW1         1 TEMP              0 ****  ****    0 ROOT
