@<TRIPOS>MOLECULE
RW1
   20    21     1     0     0
SMALL
bcc


@<TRIPOS>ATOM
      1 C2          0.1060   -0.4480    0.0340 ca        1 RW1      0.630900
      2 N3          1.4110   -0.0690   -0.0450 nb        1 RW1     -0.694000
      3 C4          1.9690    0.3390    1.1120 ca        1 RW1      0.426200
      4 C5          1.2560    0.3680    2.3250 ca        1 RW1     -0.358600
      5 N1         -0.6810   -0.4630    1.1390 nb        1 RW1     -0.690000
      6 C6         -0.0960   -0.0520    2.2990 cp        1 RW1      0.497800
      7 C7         -0.8800   -0.0420    3.5450 cp        1 RW1     -0.160500
      8 C8         -2.2300    0.3340    3.5380 ca        1 RW1     -0.097000
      9 C12        -0.2700   -0.4090    4.7520 ca        1 RW1     -0.097000
     10 C11        -1.0000   -0.3910    5.9390 ca        1 RW1     -0.137000
     11 C10        -2.3410   -0.0070    5.9300 ca        1 RW1     -0.114000
     12 C9         -2.9530    0.3540    4.7300 ca        1 RW1     -0.137000
     13 H2         -0.3700   -0.7860   -0.9100 h5        1 RW1      0.055100
     14 H4          3.0260    0.6550    1.0630 h4        1 RW1      0.029100
     15 H5          1.7260    0.7130    3.2530 ha        1 RW1      0.156000
     16 H8         -2.7220    0.6120    2.5930 ha        1 RW1      0.142500
     17 H12         0.7850   -0.7240    4.7630 ha        1 RW1      0.142500
     18 H11        -0.5170   -0.6830    6.8830 ha        1 RW1      0.135500
     19 H10        -2.9150    0.0080    6.8680 ha        1 RW1      0.134000
     20 H9         -4.0120    0.6520    4.7200 ha        1 RW1      0.135500
@<TRIPOS>BOND
     1    1    2 ar  
     2    1    5 ar  
     3    1   13 1   
     4    2    3 ar  
     5    3    4 ar  
     6    3   14 1   
     7    4    6 ar  
     8    4   15 1   
     9    5    6 ar  
    10    6    7 1   
    11    7    8 ar  
    12    7    9 ar  
    13    8   12 ar  
    14    8   16 1   
    15    9   10 ar  
    16    9   17 1   
    17   10   11 ar  
    18   10   18 1   
    19   11   12 ar  
    20   11   19 1   
    21   12   20 1   
@<TRIPOS>SUBSTRUCTURE
     1 RW1         1 TEMP              0 ****  ****    0 ROOT
