@<TRIPOS>MOLECULE
molecule
   42    43     1     0     0
SMALL
bcc


@<TRIPOS>ATOM
      1 O2           0.0000     0.0000     0.0000 o          1 RW2      -0.915500
      2 P            1.4800     0.0000     0.0000 p5         1 RW2       1.192900
      3 O4           2.0170     0.0000     1.5170 o          1 RW2      -0.915500
      4 O3           2.0150    -1.3150    -0.7590 o          1 RW2      -0.915500
      5 O            2.0160     1.3140    -0.7590 os         1 RW2      -0.595200
      6 C6           1.6280     2.6390    -0.3910 c3         1 RW2       0.242700
      7 C3           2.3070     3.6320    -1.2990 ca         1 RW2      -0.127600
      8 C2           3.1560     3.1980    -2.3010 ca         1 RW2       0.424200
      9 N            3.7550     4.0580    -3.0990 nb         1 RW2      -0.727000
     10 C1           3.5740     5.3590    -2.9810 ca         1 RW2       0.328600
     11 C7           4.2830     6.3000    -3.9210 c3         1 RW2      -0.120400
     12 C            2.7360     5.8710    -2.0010 ca         1 RW2      -0.025200
     13 O1           2.5510     7.2120    -1.8830 oh         1 RW2      -0.511100
     14 C4           2.0830     4.9910    -1.1430 ca         1 RW2      -0.090300
     15 C5           1.1640     5.5030    -0.0650 c3         1 RW2       0.288100
     16 N1          -0.1990     5.6030    -0.5920 nu         1 RW2      -0.796000
     17 C8          -1.2280     5.9510     0.2370 c2         1 RW2       0.124800
     18 C12         -2.5270     5.9740    -0.1190 ce         1 RW2      -0.290400
     19 C15         -3.0180     5.6400    -1.4000 c          1 RW2       0.919800
     20 O6          -2.2590     5.2100    -2.2490 o          1 RW2      -0.896300
     21 O7          -4.3280     5.8010    -1.6840 o          1 RW2      -0.896300
     22 C9          -1.0700     6.3590     1.6830 c3         1 RW2      -0.040200
     23 C10         -2.4850     6.2290     2.2910 c3         1 RW2      -0.168700
     24 C11         -3.3860     6.4040     1.0490 c3         1 RW2       0.021800
     25 C13         -2.7390     7.3190     3.3000 c          1 RW2       0.908600
     26 O5          -1.8840     8.1390     3.5320 o          1 RW2      -0.892800
     27 O14         -3.9180     7.3780     3.9400 o          1 RW2      -0.892800
     28 H3           1.9200     2.8290     0.6350 h1         1 RW2       0.059200
     29 H4           0.5540     2.7390    -0.4850 h1         1 RW2       0.059200
     30 H5           3.3310     2.1370    -2.4310 h4         1 RW2       0.070100
     31 H6           3.5600     6.9580    -4.3860 hc         1 RW2       0.022700
     32 H7           5.0040     6.8880    -3.3670 hc         1 RW2       0.022700
     33 H8           4.7950     5.7280    -4.6850 hc         1 RW2       0.022700
     34 H9           3.2690     7.5870    -1.3990 ho         1 RW2       0.384000
     35 H10          1.1770     4.8190     0.7750 h1         1 RW2       0.029200
     36 H11          1.4990     6.4800     0.2610 h1         1 RW2       0.029200
     37 H12         -0.3680     5.4730    -1.5700 hn         1 RW2       0.481800
     38 H14         -0.3820     5.6920     2.1890 hc         1 RW2       0.036200
     39 H15         -0.7260     7.3850     1.7490 hc         1 RW2       0.036200
     40 H16         -2.6240     5.2480     2.7290 hc         1 RW2       0.048700
     41 H17         -3.6760     7.4420     0.9390 hc         1 RW2       0.031700
     42 H18         -4.2590     5.7680     1.1260 hc         1 RW2       0.031700
@<TRIPOS>BOND
     1    20    19 1
     2    21    19 1
     3    19    18 1
     4    13    12 1
     5    18    24 1
     6    18    17 2
     7    16    17 1
     8    16    15 1
     9    11    10 1
    10    24    23 1
    11    17    22 1
    12    12    10 ar
    13    12    14 ar
    14    15    14 1
    15    10     9 ar
    16    14     7 ar
    17    23    22 1
    18    23    25 1
    19     9     8 ar
    20     1     2 1
    21     7     8 ar
    22     7     6 1
    23    26    25 1
    24    25    27 1
    25     5     2 1
    26     5     6 1
    27     4     2 1
    28     2     3 1
    29     6    28 1
    30     6    29 1
    31     8    30 1
    32    11    31 1
    33    11    32 1
    34    11    33 1
    35    13    34 1
    36    15    35 1
    37    15    36 1
    38    16    37 1
    39    22    38 1
    40    22    39 1
    41    23    40 1
    42    24    41 1
    43    24    42 1
@<TRIPOS>SUBSTRUCTURE
     1 RW2         1 TEMP              0 ****  ****    0 ROOT
