@<TRIPOS>MOLECULE
RW3
   69    75     1     0     0
SMALL
bcc


@<TRIPOS>ATOM
      1 CAA          0.0000     0.0000     0.0000 c3         1 RW3       0.152300
      2 CAB          1.5300     0.0000     0.0000 c3         1 RW3       0.152300
      3 NAI          2.0180     0.0000     1.3870 n3         1 RW3      -0.547600
      4 CAJ          3.4850     0.0760     1.4290 c3         1 RW3       0.188100
      5 CAQ          1.5310    -1.1810     2.1130 c3         1 RW3       0.152300
      6 CAP          0.0000    -1.1810     2.1120 c3         1 RW3       0.152300
      7 NAH         -0.4870    -1.1810     0.7260 nh         1 RW3      -0.520300
      8 CAG         -1.8720    -1.2530     0.6860 ca         1 RW3       0.512200
      9 NAF         -2.5820    -0.2210     1.0950 nb         1 RW3      -0.594000
     10 CAE         -3.9190    -0.2480     1.0730 ca         1 RW3       0.388600
     11 CAD         -4.6710     0.8570     1.5100 ca         1 RW3      -0.145300
     12 CAC         -6.0320     0.8030     1.4770 ca         1 RW3      -0.087000
     13 CAK         -6.6940    -0.3310     1.0150 ca         1 RW3      -0.101000
     14 CAL         -5.9990    -1.4200     0.5850 ca         1 RW3      -0.076000
     15 CAM         -4.5960    -1.4000     0.6050 ca         1 RW3      -0.157300
     16 CAN         -3.8420    -2.5070     0.1660 ca         1 RW3      -0.026000
     17 CAO         -2.4830    -2.4210     0.2070 ca         1 RW3      -0.233600
     18 CAR         -1.6380    -3.5780    -0.2580 c3         1 RW3       0.064600
     19 NAV         -1.2700    -3.3820    -1.6630 na         1 RW3       0.388200
     20 NBA         -0.0750    -2.8100    -2.1130 nc         1 RW3      -0.597100
     21 C6          -2.0360    -3.7350    -2.7340 ca         1 RW3       0.317800
     22 N1          -3.2310    -4.3070    -2.8790 nb         1 RW3      -0.660000
     23 C2          -3.7280    -4.5280    -4.0770 ca         1 RW3       0.676900
     24 N3          -3.0870    -4.2050    -5.1860 nb         1 RW3      -0.693000
     25 C4          -1.8890    -3.6310    -5.1440 ca         1 RW3       0.622200
     26 NAZ         -1.2240    -3.2950    -6.3080 nv         1 RW3      -0.649500
     27 C5          -1.3170    -3.3730    -3.8880 ca         1 RW3      -0.504500
     28 CBB         -0.0610    -2.7820    -3.4250 cd         1 RW3       0.472500
     29 CBD          1.0280    -2.2530    -4.2800 ca         1 RW3      -0.093900
     30 CBC          0.7280    -1.4700    -5.3880 ca         1 RW3      -0.033000
     31 CBE          2.3620    -2.5340    -3.9700 ca         1 RW3      -0.071000
     32 CBH          3.3680    -2.0520    -4.7480 ca         1 RW3      -0.054000
     33 CBG          3.0890    -1.2590    -5.8820 ca         1 RW3       0.102400
     34 NBO          3.9520    -0.7040    -6.7540 nc         1 RW3      -0.441100
     35 CBF          1.7520    -0.9760    -6.1870 ca         1 RW3      -0.029100
     36 SBJ          1.7130     0.0250    -7.6360 ss         1 RW3      -0.243100
     37 CBN          3.4680    -0.0120    -7.7270 cd         1 RW3       0.308800
     38 NBM          4.2230     0.6180    -8.7010 ns         1 RW3      -0.004400
     39 CBL          5.5670     0.5310    -8.6740 c          1 RW3       0.536100
     40 CBK          6.3890     1.2160    -9.7350 c3         1 RW3      -0.065100
     41 OBI          6.1160    -0.1010    -7.7960 o          1 RW3      -0.563100
     42 HAA1        -0.3600    -0.0310    -1.0210 h1         1 RW3       0.023450
     43 HAA2        -0.3600     0.8970     0.4880 h1         1 RW3       0.023450
     44 HAB1         1.8900    -0.8860    -0.5090 h1         1 RW3       0.015950
     45 HAB2         1.8900     0.8860    -0.5080 h1         1 RW3       0.015950
     46 HAJ1         3.8160     0.9560     0.8890 h1         1 RW3      -0.000300
     47 HAJ2         3.9060    -0.8090     0.9690 h1         1 RW3      -0.000300
     48 HAJ3         3.8130     0.1400     2.4590 h1         1 RW3      -0.000300
     49 HAQ1         1.8920    -2.0780     1.6250 h1         1 RW3       0.015950
     50 HAQ2         1.8910    -1.1490     3.1340 h1         1 RW3       0.015950
     51 HAP1        -0.3600    -2.0680     2.6200 h1         1 RW3       0.023450
     52 HAP2        -0.3600    -0.2950     2.6210 h1         1 RW3       0.023450
     53 HAD         -4.1700     1.7460     1.8720 ha         1 RW3       0.119000
     54 HAC         -6.6070     1.6570     1.8140 ha         1 RW3       0.104000
     55 HAK         -7.7780    -0.3470     0.9990 ha         1 RW3       0.104000
     56 HAL         -6.5260    -2.2970     0.2280 ha         1 RW3       0.109000
     57 HAN         -4.3300    -3.4010    -0.2020 ha         1 RW3       0.126000
     58 HAR1        -2.2000    -4.4990    -0.1570 h1         1 RW3       0.048700
     59 HAR2        -0.7400    -3.6350     0.3450 h1         1 RW3       0.048700
     60 H2          -4.7020    -4.9950    -4.1570 h5         1 RW3      -0.003900
     61 HAZ1        -0.4800    -3.8750    -6.6430 hn         1 RW3       0.287300
     62 HAZ2        -1.5290    -2.5110    -6.8490 hn         1 RW3       0.287300
     63 HBC         -0.2990    -1.1890    -5.5890 ha         1 RW3       0.123000
     64 HBE          2.5970    -3.1430    -3.1050 ha         1 RW3       0.119000
     65 HBH          4.3970    -2.2790    -4.4930 ha         1 RW3       0.121000
     66 HBM          3.7700     1.1410    -9.4250 hn         1 RW3       0.174500
     67 HBK1         6.1150     0.8300   -10.7100 hc         1 RW3       0.025367
     68 HBK2         7.4410     1.0280    -9.5550 hc         1 RW3       0.025367
     69 HBK3         6.2030     2.2830    -9.7030 hc         1 RW3       0.025367
@<TRIPOS>BOND
     1     1     2 1   
     2     1     7 1   
     3     1    42 1   
     4     1    43 1   
     5     2     3 1   
     6     2    44 1   
     7     2    45 1   
     8     3     4 1   
     9     3     5 1   
    10     4    46 1   
    11     4    47 1   
    12     4    48 1   
    13     5     6 1   
    14     5    49 1   
    15     5    50 1   
    16     6     7 1   
    17     6    51 1   
    18     6    52 1   
    19     7     8 1   
    20     8     9 ar  
    21     8    17 ar  
    22     9    10 ar  
    23    10    11 ar  
    24    10    15 ar  
    25    11    12 ar  
    26    11    53 1   
    27    12    13 ar  
    28    12    54 1   
    29    13    14 ar  
    30    13    55 1   
    31    14    15 ar  
    32    14    56 1   
    33    15    16 ar  
    34    16    17 ar  
    35    16    57 1   
    36    17    18 1   
    37    18    19 1   
    38    18    58 1   
    39    18    59 1   
    40    19    20 1   
    41    19    21 1   
    42    20    28 2   
    43    21    22 ar  
    44    21    27 ar  
    45    22    23 ar  
    46    23    24 ar  
    47    23    60 1   
    48    24    25 ar  
    49    25    26 1   
    50    25    27 ar  
    51    26    61 1   
    52    26    62 1   
    53    27    28 1   
    54    28    29 1   
    55    29    30 ar  
    56    29    31 ar  
    57    30    35 ar  
    58    30    63 1   
    59    31    32 ar  
    60    31    64 1   
    61    32    33 ar  
    62    32    65 1   
    63    33    34 1   
    64    33    35 ar  
    65    34    37 2   
    66    35    36 1   
    67    36    37 1   
    68    37    38 1   
    69    38    39 1   
    70    38    66 1   
    71    39    40 1   
    72    39    41 2   
    73    40    67 1   
    74    40    68 1   
    75    40    69 1   
@<TRIPOS>SUBSTRUCTURE
     1 RW3         1 TEMP              0 ****  ****    0 ROOT
