@<TRIPOS>MOLECULE
molecule
   69    75     1     0     0
SMALL
bcc


@<TRIPOS>ATOM
      1 CAA          0.0000     0.0000     0.0000 c3         1 RW3       0.171300
      2 CAB          1.5300     0.0000     0.0000 c3         1 RW3       0.161800
      3 NAI          2.0180     0.0000     1.3870 n3         1 RW3      -0.733600
      4 CAJ          3.4850     0.0760     1.4290 c3         1 RW3       0.153100
      5 CAQ          1.5310    -1.1810     2.1130 c3         1 RW3       0.161800
      6 CAP          0.0000    -1.1810     2.1120 c3         1 RW3       0.171300
      7 NAH         -0.4870    -1.1810     0.7260 nh         1 RW3      -0.721300
      8 CAG         -1.8720    -1.2530     0.6860 ca         1 RW3       0.633200
      9 NAF         -2.5820    -0.2210     1.0950 nb         1 RW3      -0.720000
     10 CAE         -3.9190    -0.2480     1.0730 ca         1 RW3       0.436600
     11 CAD         -4.6710     0.8570     1.5100 ca         1 RW3      -0.170300
     12 CAC         -6.0320     0.8030     1.4770 ca         1 RW3      -0.114000
     13 CAK         -6.6940    -0.3310     1.0150 ca         1 RW3      -0.132000
     14 CAL         -5.9990    -1.4200     0.5850 ca         1 RW3      -0.103000
     15 CAM         -4.5960    -1.4000     0.6050 ca         1 RW3      -0.166300
     16 CAN         -3.8420    -2.5070     0.1660 ca         1 RW3      -0.051000
     17 CAO         -2.4830    -2.4210     0.2070 ca         1 RW3      -0.225600
     18 CAR         -1.6380    -3.5780    -0.2580 c3         1 RW3       0.143600
     19 NAV         -1.2700    -3.3820    -1.6630 na         1 RW3      -0.019800
     20 NBA         -0.0750    -2.8100    -2.1130 nc         1 RW3      -0.465100
     21 C6          -2.0360    -3.7350    -2.7340 ca         1 RW3       0.512800
     22 N1          -3.2310    -4.3070    -2.8790 nb         1 RW3      -0.784000
     23 C2          -3.7280    -4.5280    -4.0770 ca         1 RW3       0.730900
     24 N3          -3.0870    -4.2050    -5.1860 nb         1 RW3      -0.799000
     25 C4          -1.8890    -3.6310    -5.1440 ca         1 RW3       0.785200
     26 NAZ         -1.2240    -3.2950    -6.3080 nv         1 RW3      -1.074500
     27 C5          -1.3170    -3.3730    -3.8880 ca         1 RW3      -0.493500
     28 CBB         -0.0610    -2.7820    -3.4250 cd         1 RW3       0.435500
     29 CBD          1.0280    -2.2530    -4.2800 ca         1 RW3      -0.093900
     30 CBC          0.7280    -1.4700    -5.3880 ca         1 RW3      -0.050000
     31 CBE          2.3620    -2.5340    -3.9700 ca         1 RW3      -0.097000
     32 CBH          3.3680    -2.0520    -4.7480 ca         1 RW3      -0.087000
     33 CBG          3.0890    -1.2590    -5.8820 ca         1 RW3       0.159400
     34 NBO          3.9520    -0.7040    -6.7540 nc         1 RW3      -0.583100
     35 CBF          1.7520    -0.9760    -6.1870 ca         1 RW3      -0.066100
     36 SBJ          1.7130     0.0250    -7.6360 ss         1 RW3      -0.170100
     37 CBN          3.4680    -0.0120    -7.7270 cd         1 RW3       0.496800
     38 NBM          4.2230     0.6180    -8.7010 ns         1 RW3      -0.461400
     39 CBL          5.5670     0.5310    -8.6740 c          1 RW3       0.644100
     40 CBK          6.3890     1.2160    -9.7350 c3         1 RW3      -0.169100
     41 OBI          6.1160    -0.1010    -7.7960 o          1 RW3      -0.522100
     42 HAA1        -0.3600    -0.0310    -1.0210 h1         1 RW3       0.053200
     43 HAA2        -0.3600     0.8970     0.4880 h1         1 RW3       0.053200
     44 HAB1         1.8900    -0.8860    -0.5090 h1         1 RW3       0.042700
     45 HAB2         1.8900     0.8860    -0.5080 h1         1 RW3       0.042700
     46 HAJ1         3.8160     0.9560     0.8890 h1         1 RW3       0.031700
     47 HAJ2         3.9060    -0.8090     0.9690 h1         1 RW3       0.031700
     48 HAJ3         3.8130     0.1400     2.4590 h1         1 RW3       0.031700
     49 HAQ1         1.8920    -2.0780     1.6250 h1         1 RW3       0.042700
     50 HAQ2         1.8910    -1.1490     3.1340 h1         1 RW3       0.042700
     51 HAP1        -0.3600    -2.0680     2.6200 h1         1 RW3       0.053200
     52 HAP2        -0.3600    -0.2950     2.6210 h1         1 RW3       0.053200
     53 HAD         -4.1700     1.7460     1.8720 ha         1 RW3       0.150000
     54 HAC         -6.6070     1.6570     1.8140 ha         1 RW3       0.133000
     55 HAK         -7.7780    -0.3470     0.9990 ha         1 RW3       0.131000
     56 HAL         -6.5260    -2.2970     0.2280 ha         1 RW3       0.135000
     57 HAN         -4.3300    -3.4010    -0.2020 ha         1 RW3       0.155000
     58 HAR1        -2.2000    -4.4990    -0.1570 h1         1 RW3       0.081200
     59 HAR2        -0.7400    -3.6350     0.3450 h1         1 RW3       0.081200
     60 H2          -4.7020    -4.9950    -4.1570 h5         1 RW3       0.060100
     61 HAZ1        -0.4800    -3.8750    -6.6430 hn         1 RW3       0.444800
     62 HAZ2        -1.5290    -2.5110    -6.8490 hn         1 RW3       0.444800
     63 HBC         -0.2990    -1.1890    -5.5890 ha         1 RW3       0.146000
     64 HBE          2.5970    -3.1430    -3.1050 ha         1 RW3       0.150000
     65 HBH          4.3970    -2.2790    -4.4930 ha         1 RW3       0.155000
     66 HBM          3.7700     1.1410    -9.4250 hn         1 RW3       0.337500
     67 HBK1         6.1150     0.8300   -10.7100 hc         1 RW3       0.065367
     68 HBK2         7.4410     1.0280    -9.5550 hc         1 RW3       0.065367
     69 HBK3         6.2030     2.2830    -9.7030 hc         1 RW3       0.065367
@<TRIPOS>BOND
     1     1     2 1
     2     1     7 1
     3     2     3 1
     4     3     4 1
     5     3     5 1
     6     5     6 1
     7     6     7 1
     8     7     8 1
     9     8     9 ar
    10     8    17 ar
    11     9    10 ar
    12    10    11 ar
    13    10    15 ar
    14    11    12 ar
    15    12    13 ar
    16    13    14 ar
    17    14    15 ar
    18    15    16 ar
    19    16    17 ar
    20    17    18 1
    21    18    19 1
    22    19    20 1
    23    19    21 1
    24    20    28 2
    25    21    22 ar
    26    21    27 ar
    27    22    23 ar
    28    23    24 ar
    29    24    25 ar
    30    25    26 1
    31    25    27 ar
    32    27    28 1
    33    28    29 1
    34    29    30 ar
    35    29    31 ar
    36    30    35 ar
    37    31    32 ar
    38    32    33 ar
    39    33    34 1
    40    33    35 ar
    41    34    37 2
    42    35    36 1
    43    36    37 1
    44    37    38 1
    45    38    39 1
    46    39    40 1
    47    39    41 2
    48     1    42 1
    49     1    43 1
    50     2    44 1
    51     2    45 1
    52     4    46 1
    53     4    47 1
    54     4    48 1
    55     5    49 1
    56     5    50 1
    57     6    51 1
    58     6    52 1
    59    11    53 1
    60    12    54 1
    61    13    55 1
    62    14    56 1
    63    16    57 1
    64    18    58 1
    65    18    59 1
    66    23    60 1
    67    26    61 1
    68    26    62 1
    69    30    63 1
    70    31    64 1
    71    32    65 1
    72    38    66 1
    73    40    67 1
    74    40    68 1
    75    40    69 1
@<TRIPOS>SUBSTRUCTURE
     1 RW3         1 TEMP              0 ****  ****    0 ROOT
