@<TRIPOS>MOLECULE
molecule
   64    70     1     0     0
SMALL
bcc


@<TRIPOS>ATOM
      1 CAA          0.0000     0.0000     0.0000 c3         1 RW4       0.132300
      2 CAB          1.5300     0.0000     0.0000 c3         1 RW4       0.159800
      3 NAI          2.0180     0.0000     1.3870 n3         1 RW4      -0.722600
      4 CAJ          1.6370    -1.2390     2.0790 c3         1 RW4       0.139100
      5 CAQ          1.5310     1.1810     2.1130 c3         1 RW4       0.159800
      6 CAP          0.0010     1.1810     2.1130 c3         1 RW4       0.132300
      7 NAH         -0.4870     1.1810     0.7270 nh         1 RW4      -0.692300
      8 CAG         -1.8710     1.2530     0.6870 ca         1 RW4       0.636200
      9 NAF         -2.5710     0.1420     0.5810 nb         1 RW4      -0.734000
     10 CAE         -3.9070     0.1650     0.5390 ca         1 RW4       0.444600
     11 CAD         -4.6480    -1.0240     0.4260 ca         1 RW4      -0.175300
     12 CAC         -6.0080    -0.9730     0.3860 ca         1 RW4      -0.111000
     13 CAK         -6.6830     0.2440     0.4540 ca         1 RW4      -0.136000
     14 CAL         -5.9980     1.4170     0.5630 ca         1 RW4      -0.099000
     15 CAM         -4.5950     1.4010     0.6090 ca         1 RW4      -0.174300
     16 CAN         -3.8530     2.5940     0.7220 ca         1 RW4      -0.042000
     17 CAO         -2.4940     2.5060     0.7660 ca         1 RW4      -0.236600
     18 CAR         -1.6610     3.7560     0.8930 c3         1 RW4       0.141600
     19 NAV         -1.3350     4.2640    -0.4430 na         1 RW4      -0.026800
     20 NBA         -2.1070     5.1770    -1.1710 nc         1 RW4      -0.495100
     21 C6          -0.2310     3.9250    -1.1660 ca         1 RW4       0.525800
     22 N1           0.8110     3.1200    -0.9570 nb         1 RW4      -0.752000
     23 C2           1.7520     2.9910    -1.8670 ca         1 RW4       0.718900
     24 N3           1.7220     3.6350    -3.0200 nb         1 RW4      -0.800000
     25 C4           0.7240     4.4590    -3.3210 ca         1 RW4       0.782200
     26 NAZ          0.6990     5.1290    -4.5290 nv         1 RW4      -1.075500
     27 C5          -0.3050     4.6310    -2.3810 ca         1 RW4      -0.498500
     28 CBB         -1.5350     5.4210    -2.3270 cd         1 RW4       0.452500
     29 CBD         -2.0410     6.3330    -3.3800 ca         1 RW4      -0.109900
     30 CBC         -2.0250     5.9360    -4.7120 ca         1 RW4      -0.038000
     31 CBF         -2.5010     6.7930    -5.6980 ca         1 RW4      -0.079100
     32 SBI         -2.6190     6.5990    -7.4450 ss         1 RW4      -0.176100
     33 CBK         -3.3160     8.2060    -7.5900 cc         1 RW4       0.681100
     34 NBJ         -3.7010     8.7930    -8.7780 nv         1 RW4      -0.943800
     35 NBL         -3.4160     8.7580    -6.4290 nd         1 RW4      -0.677100
     36 CBG         -2.9960     8.0570    -5.3580 ca         1 RW4       0.182400
     37 CBH         -3.0010     8.4380    -3.9980 ca         1 RW4      -0.105000
     38 CBE         -2.5400     7.5930    -3.0390 ca         1 RW4      -0.088000
     39 HAA1        -0.3600     0.0320    -1.0210 h1         1 RW4       0.048700
     40 HAA2        -0.3600    -0.8970     0.4880 h1         1 RW4       0.048700
     41 HAB1         1.8900     0.8860    -0.5080 h1         1 RW4       0.064200
     42 HAB2         1.8900    -0.8860    -0.5080 h1         1 RW4       0.064200
     43 HAJ1         2.1460    -1.2910     3.0330 h1         1 RW4       0.034367
     44 HAJ2         0.5650    -1.2480     2.2400 h1         1 RW4       0.034367
     45 HAJ3         1.9180    -2.0920     1.4730 h1         1 RW4       0.034367
     46 HAQ1         1.8910     2.0780     1.6250 h1         1 RW4       0.064200
     47 HAQ2         1.8910     1.1490     3.1340 h1         1 RW4       0.064200
     48 HAP1        -0.3590     0.2940     2.6210 h1         1 RW4       0.048700
     49 HAP2        -0.3590     2.0660     2.6220 h1         1 RW4       0.048700
     50 HAD         -4.1390    -1.9780     0.3720 ha         1 RW4       0.147000
     51 HAC         -6.5740    -1.8930     0.3000 ha         1 RW4       0.133000
     52 HAK         -7.7650     0.2580     0.4210 ha         1 RW4       0.132000
     53 HAL         -6.5330     2.3570     0.6160 ha         1 RW4       0.134000
     54 HAN         -4.3500     3.5540     0.7820 ha         1 RW4       0.149000
     55 HAR1        -0.7460     3.5280     1.4250 h1         1 RW4       0.078200
     56 HAR2        -2.2190     4.5080     1.4380 h1         1 RW4       0.078200
     57 H2           2.5850     2.3290    -1.6620 h5         1 RW4       0.061100
     58 HAZ1         0.4690     4.6370    -5.3700 hn         1 RW4       0.443800
     59 HAZ2         0.9740     6.0910    -4.5730 hn         1 RW4       0.443800
     60 HBC         -1.7070     4.9340    -4.9740 ha         1 RW4       0.144000
     61 HBE         -2.5590     7.8990    -2.0000 ha         1 RW4       0.146000
     62 HBJ1        -3.5910     8.2980    -9.6400 hn         1 RW4       0.451800
     63 HBJ2        -4.0910     9.7150    -8.7770 hn         1 RW4       0.451800
     64 HBH         -3.3850     9.4110    -3.7160 ha         1 RW4       0.148000
@<TRIPOS>BOND
     1     1     2 1
     2     1     7 1
     3     2     3 1
     4     3     4 1
     5     3     5 1
     6     5     6 1
     7     6     7 1
     8     7     8 1
     9     8     9 ar
    10     8    17 ar
    11     9    10 ar
    12    10    11 ar
    13    10    15 ar
    14    11    12 ar
    15    12    13 ar
    16    13    14 ar
    17    14    15 ar
    18    15    16 ar
    19    16    17 ar
    20    17    18 1
    21    18    19 1
    22    19    20 1
    23    19    21 1
    24    20    28 2
    25    21    22 ar
    26    21    27 ar
    27    22    23 ar
    28    23    24 ar
    29    24    25 ar
    30    25    26 1
    31    25    27 ar
    32    27    28 1
    33    28    29 1
    34    29    30 ar
    35    29    38 ar
    36    30    31 ar
    37    31    32 1
    38    31    36 ar
    39    32    33 1
    40    33    34 1
    41    33    35 2
    42    35    36 1
    43    36    37 ar
    44    37    38 ar
    45     1    39 1
    46     1    40 1
    47     2    41 1
    48     2    42 1
    49     4    43 1
    50     4    44 1
    51     4    45 1
    52     5    46 1
    53     5    47 1
    54     6    48 1
    55     6    49 1
    56    11    50 1
    57    12    51 1
    58    13    52 1
    59    14    53 1
    60    16    54 1
    61    18    55 1
    62    18    56 1
    63    23    57 1
    64    26    58 1
    65    26    59 1
    66    30    60 1
    67    38    61 1
    68    34    62 1
    69    34    63 1
    70    37    64 1
@<TRIPOS>SUBSTRUCTURE
     1 RW4         1 TEMP              0 ****  ****    0 ROOT
