@<TRIPOS>MOLECULE
RWF
   39    41     1     0     0
SMALL
bcc


@<TRIPOS>ATOM
      1 C1         -0.0760    0.0520   -0.1730 ca        1 RWF     -0.183800
      2 C2          3.5580   -0.0020    1.1790 c3        1 RWF      0.046800
      3 C3          4.2250    1.1710    0.4680 c3        1 RWF     -0.180400
      4 C4          4.1480    2.4580    1.2420 c         1 RWF      0.563100
      5 C5          4.0640    3.6930    0.4020 c3        1 RWF     -0.202100
      6 C6          4.1570   -1.3100    0.7500 ca        1 RWF     -0.081300
      7 C7          4.4270   -2.2860    1.7180 ca        1 RWF     -0.121000
      8 C8          4.9960   -3.5040    1.3480 ca        1 RWF     -0.133500
      9 C9          5.3010   -3.7580    0.0110 ca        1 RWF     -0.129000
     10 C10         5.0310   -2.7910   -0.9570 ca        1 RWF     -0.133500
     11 C11         1.3200   -0.2110    2.2600 c         1 RWF      0.733800
     12 C12         4.4600   -1.5730   -0.5900 ca        1 RWF     -0.121000
     13 C13         2.0680   -0.0240    1.0190 cc        1 RWF     -0.226400
     14 C14         1.3780    0.0750   -0.1580 cd        1 RWF      0.218900
     15 C15        -0.8560    0.2040   -1.3340 ca        1 RWF     -0.085000
     16 C16        -2.2400    0.1710   -1.2640 ca        1 RWF     -0.154000
     17 C17        -2.8860   -0.0130   -0.0330 ca        1 RWF     -0.080000
     18 C18        -2.1500   -0.1550    1.1320 ca        1 RWF     -0.145000
     19 C19        -0.7420   -0.1180    1.0560 ca        1 RWF      0.169100
     20 O1         -0.0780   -0.2540    2.2490 os        1 RWF     -0.324200
     21 O2          1.7350   -0.3700    3.4060 o         1 RWF     -0.555500
     22 O3          4.1820    2.5060    2.4750 o         1 RWF     -0.524100
     23 O4          2.0780    0.2320   -1.3280 oh        1 RWF     -0.490100
     24 H2          3.7750    0.1290    2.2880 hc        1 RWF      0.107700
     25 H3C1        5.3170    0.9340    0.3340 hc        1 RWF      0.076700
     26 H3C2        3.7890    1.3200   -0.5540 hc        1 RWF      0.076700
     27 H5C1        4.8610    3.6780   -0.3800 hc        1 RWF      0.062367
     28 H5C2        4.1840    4.6090    1.0300 hc        1 RWF      0.062367
     29 H5C3        3.0680    3.7310   -0.1040 hc        1 RWF      0.062367
     30 H7          4.1840   -2.0900    2.7750 ha        1 RWF      0.141500
     31 H8          5.2050   -4.2640    2.1150 ha        1 RWF      0.130500
     32 H9          5.7530   -4.7170   -0.2790 ha        1 RWF      0.130000
     33 H10         5.2690   -2.9880   -2.0120 ha        1 RWF      0.130500
     34 H12         4.2360   -0.8150   -1.3560 ha        1 RWF      0.141500
     35 H15        -0.3750    0.3650   -2.3110 ha        1 RWF      0.130000
     36 H16        -2.8390    0.2900   -2.1790 ha        1 RWF      0.143000
     37 H17        -3.9860   -0.0400    0.0070 ha        1 RWF      0.145000
     38 H18        -2.6300   -0.2940    2.1110 ha        1 RWF      0.165000
     39 H4          1.5060   -0.0200   -2.0680 ho        1 RWF      0.431000
@<TRIPOS>BOND
     1    1   14 1   
     2    1   15 ar  
     3    1   19 ar  
     4    2    3 1   
     5    2    6 1   
     6    2   13 1   
     7    2   24 1   
     8    3    4 1   
     9    3   25 1   
    10    3   26 1   
    11    4    5 1   
    12    4   22 2   
    13    5   27 1   
    14    5   28 1   
    15    5   29 1   
    16    6    7 ar  
    17    6   12 ar  
    18    7    8 ar  
    19    7   30 1   
    20    8    9 ar  
    21    8   31 1   
    22    9   10 ar  
    23    9   32 1   
    24   10   12 ar  
    25   10   33 1   
    26   11   13 1   
    27   11   20 1   
    28   11   21 2   
    29   12   34 1   
    30   13   14 2   
    31   14   23 1   
    32   15   16 ar  
    33   15   35 1   
    34   16   17 ar  
    35   16   36 1   
    36   17   18 ar  
    37   17   37 1   
    38   18   19 ar  
    39   18   38 1   
    40   19   20 1   
    41   23   39 1   
@<TRIPOS>SUBSTRUCTURE
     1 RWF         1 TEMP              0 ****  ****    0 ROOT
