@<TRIPOS>MOLECULE
RWJ
   53    55     1     0     0
SMALL
bcc


@<TRIPOS>ATOM
      1 C51          0.0000     0.0000     0.0000 c3         1 RWJ      -0.145700
      2 C52          1.5390     0.0000     0.0000 c3         1 RWJ      -0.045400
      3 C53          1.9800     0.0000     1.4780 c3         1 RWJ      -0.008900
      4 C54          0.7700    -0.6020     2.2350 c3         1 RWJ      -0.008900
      5 C55         -0.4410    -0.0000     1.4780 c3         1 RWJ      -0.045400
      6 CP          -0.5160     1.2350    -0.6930 c          1 RWJ       0.576100
      7 OP           0.2620     2.0450    -1.1470 o          1 RWJ      -0.587100
      8 N           -1.8440     1.4390    -0.8070 ns         1 RWJ      -0.231900
      9 CA          -2.3460     2.6390    -1.4800 c3         1 RWJ       0.029700
     10 CB          -1.8420     3.8820    -0.7450 c3         1 RWJ      -0.144400
     11 CG          -2.3440     3.8600     0.6990 c3         1 RWJ       0.012600
     12 CD          -1.8420     5.1040     1.4340 c3         1 RWJ       0.161800
     13 NE          -2.3230     5.0830     2.8170 nu         1 RWJ      -0.486200
     14 CZ          -1.9960     6.1050     3.6750 c2         1 RWJ       0.240100
     15 NH1         -1.2570     7.0950     3.2580 n2         1 RWJ      -0.622100
     16 NH2         -2.4470     6.0860     4.9730 nz         1 RWJ       0.198400
     17 N5          -3.8230     3.9010    -3.8460 nc         1 RWJ      -0.450100
     18 C5          -2.6560     3.3040    -3.9510 cd         1 RWJ       0.320200
     19 S5          -2.3030     3.4670    -5.6960 ss         1 RWJ      -0.186100
     20 C61         -4.4490     4.4540    -4.8890 ca         1 RWJ       0.021400
     21 C62         -3.7810     4.3480    -6.1360 ca         1 RWJ       0.036900
     22 C63         -4.3040     4.8620    -7.2990 ca         1 RWJ      -0.049000
     23 C64         -5.5220     5.5080    -7.2690 ca         1 RWJ      -0.053000
     24 C65         -6.2010     5.6290    -6.0620 ca         1 RWJ      -0.107000
     25 C66         -5.6980     5.1270    -4.9060 ca         1 RWJ      -0.029000
     26 C           -1.8500     2.6610    -2.9020 c          1 RWJ       0.534800
     27 H511        -0.3690    -0.8900    -0.4950 hc         1 RWJ       0.043700
     28 H521         1.2360    -0.9200    -0.4850 hc         1 RWJ       0.034700
     29 H522         1.9590     0.7640    -0.6430 hc         1 RWJ       0.034700
     30 H531         2.8560    -0.6230     1.6110 hc         1 RWJ       0.017950
     31 H532         2.1700     1.0120     1.8150 hc         1 RWJ       0.017950
     32 H541         0.7700    -0.2840     3.2700 hc         1 RWJ       0.017950
     33 H542         0.7700    -1.6830     2.1570 hc         1 RWJ       0.017950
     34 H551        -0.6320     1.0110     1.8150 hc         1 RWJ       0.034700
     35 H552        -1.3170    -0.6230     1.6110 hc         1 RWJ       0.034700
     36 H1N         -2.4860     0.7500    -0.4680 hn         1 RWJ       0.176500
     37 HA1         -3.4290     2.6300    -1.4740 h1         1 RWJ       0.037700
     38 HB1         -2.9000     3.8020    -0.9650 hc         1 RWJ       0.064200
     39 HB2         -1.5550     4.8000    -1.2440 hc         1 RWJ       0.064200
     40 HG1         -1.9730     2.9730     1.1970 hc         1 RWJ       0.017200
     41 HG2         -3.4270     3.8500     0.7040 hc         1 RWJ       0.017200
     42 HD1         -2.2140     5.9920     0.9360 h1         1 RWJ       0.038700
     43 HD2         -0.7590     5.1140     1.4280 h1         1 RWJ       0.038700
     44 HE1         -2.8970     4.3270     3.1360 hn         1 RWJ       0.303800
     45 HN11        -0.9270     7.1110     2.3130 hn         1 RWJ       0.388400
     46 HN21        -2.1130     6.8970     5.4550 hn         1 RWJ       0.222133
     47 HN22        -3.4480     6.0840     4.9790 hn         1 RWJ       0.222133
     48 H631        -3.7630     4.7600    -8.2320 ha         1 RWJ       0.123000
     49 H641        -5.9460     5.9180    -8.1780 ha         1 RWJ       0.116000
     50 H651        -7.1570     6.1370    -6.0440 ha         1 RWJ       0.112000
     51 H661        -6.2580     5.2410    -3.9850 ha         1 RWJ       0.106000
     52 O           -0.7880     2.1470    -3.1820 o          1 RWJ      -0.455100
     53 HH23        -2.1100     5.2630     5.4320 hn         1 RWJ       0.222133
@<TRIPOS>BOND
     1     1     2 1   
     2     1     5 1   
     3     1     6 1   
     4     1    27 1   
     5     2     3 1   
     6     2    28 1   
     7     2    29 1   
     8     3     4 1   
     9     3    30 1   
    10     3    31 1   
    11     4     5 1   
    12     4    32 1   
    13     4    33 1   
    14     5    34 1   
    15     5    35 1   
    16     6     7 2   
    17     6     8 1   
    18     8     9 1   
    19     8    36 1   
    20     9    10 1   
    21     9    26 1   
    22     9    37 1   
    23    10    11 1   
    24    10    38 1   
    25    10    39 1   
    26    11    12 1   
    27    11    40 1   
    28    11    41 1   
    29    12    13 1   
    30    12    42 1   
    31    12    43 1   
    32    13    14 1   
    33    13    44 1   
    34    14    15 2   
    35    14    16 1   
    36    15    45 1   
    37    16    46 1   
    38    16    47 1   
    39    16    53 1   
    40    17    18 2   
    41    17    20 1   
    42    18    19 1   
    43    18    26 1   
    44    19    21 1   
    45    20    21 ar  
    46    20    25 ar  
    47    21    22 ar  
    48    22    23 ar  
    49    22    48 1   
    50    23    24 ar  
    51    23    49 1   
    52    24    25 ar  
    53    24    50 1   
    54    25    51 1   
    55    26    52 2   
@<TRIPOS>SUBSTRUCTURE
     1 RWJ         1 TEMP              0 ****  ****    0 ROOT
