@<TRIPOS>MOLECULE
RWX
   53    51     1     0     0
SMALL
bcc


@<TRIPOS>ATOM
      1 C28         2.2240    3.5700    0.1190 c1        1 RWX     -0.003000
      2 C3          8.3940    3.9880   10.5560 c2        1 RWX     -0.097000
      3 C4          7.5010    2.9690   10.3630 c2        1 RWX     -0.232000
      4 C20         3.8860    1.4490    2.5850 c2        1 RWX     -0.092000
      5 C5          7.7160    2.5020    8.9590 c2        1 RWX     -0.045000
      6 C21         5.1810    0.9180    2.5860 c2        1 RWX     -0.369000
      7 C2          9.1930    4.1810    9.2590 c3        1 RWX     -0.056000
      8 C26         3.2430    2.1270    1.4610 c2        1 RWX      0.156000
      9 C18         3.9960    0.7260    4.6830 c2        1 RWX     -0.313000
     10 C7          6.8770    1.4300    8.3310 c2        1 RWX      0.381000
     11 C23         6.1760    0.9110    1.4250 c2        1 RWX      0.387000
     12 C11         0.5190    2.1160    6.5620 c3        1 RWX     -0.284000
     13 C12         4.2820   -0.2180    6.8610 c1        1 RWX     -0.200000
     14 C14         7.0840   -3.1630    6.5930 c1        1 RWX     -0.189000
     15 C10         6.9780   -0.8160    7.3940 c2        1 RWX      0.073000
     16 C15         7.5950   -2.0430    7.2130 c2        1 RWX     -0.284000
     17 C1         10.6920    4.1040    9.4840 c3        1 RWX     -0.192000
     18 C17         9.6660   -3.1780    7.5670 c1        1 RWX     -0.069000
     19 N27         2.8100    3.3870    1.4090 n2        1 RWX     -0.204000
     20 N29         2.3030    2.3890   -0.5570 n3        1 RWX     -0.210000
     21 N19         3.1970    1.3470    3.7840 n2        1 RWX     -0.096000
     22 N6          8.6700    3.1500    8.3380 n2        1 RWX     -0.082000
     23 N30         2.9460    1.4060    0.2160 n3        1 RWX     -0.114000
     24 N13         3.5750    0.4700    6.0140 nh        1 RWX     -0.074000
     25 N9          7.5560    0.2460    8.0360 n         1 RWX     -0.283000
     26 O8          5.6700    1.6000    8.1140 o         1 RWX     -0.294000
     27 O24         7.3600    1.2240    1.6980 o         1 RWX     -0.521000
     28 O25         5.7320    0.5740    0.2980 o         1 RWX     -0.521000
     29 O16         8.9260   -2.1640    7.7720 os        1 RWX     -0.067000
     30 S22         5.5490    0.2940    4.0800 ss        1 RWX      0.673000
     31 H28         2.1040    2.1580   -1.5020 hn        1 RWX      0.277000
     32 H6          8.9300    5.1840    8.8080 h1        1 RWX      0.159000
     33 H11C       10.9990    4.9330   10.1660 hc        1 RWX      0.095667
     34 H12C       10.9830    3.1300    9.9450 hc        1 RWX      0.095667
     35 H13C       11.2300    4.2150    8.5110 hc        1 RWX      0.095667
     36 H9          8.5210    0.1810    8.2980 hn        1 RWX      0.255000
     37 H111       -0.4090    2.7190    6.6640 hc        1 RWX      0.071500
     38 H112        0.9600    2.2870    5.5550 hc        1 RWX      0.071500
     39 H121        3.8250   -0.3350    7.8660 ha        1 RWX      0.072000
     40 H122        0.2720    1.0380    6.6860 hc        1 RWX      0.071500
     41 H10         1.2450    2.4250    7.3460 hc        1 RWX      0.071500
     42 H141        2.6840    0.8870    6.2410 hn        1 RWX      0.209000
     43 H142        6.0900   -3.1450    6.1390 ha        1 RWX      0.077000
     44 H15         5.8780   -0.6510    6.9900 h4        1 RWX      0.291000
     45 H171        5.8100   -4.3280    8.3750 ha        1 RWX      0.002500
     46 H172        6.4030   -4.6440    8.2790 ha        1 RWX      0.002500
     47 H173        9.3150   -4.0220    6.9360 ha        1 RWX      0.068000
     48 C31         3.1830    0.1840   -0.2210 c1        1 RWX     -0.072000
     49 CL3         8.6270    4.9180   11.9110 cl        1 RWX      0.063000
     50 H311        3.7250   -0.4810    0.4780 ha        1 RWX      0.105000
     51 H312       -0.5180   -1.1910    6.5550 ha        1 RWX      0.002500
     52 H313       -0.5090   -1.1440    7.2300 ha        1 RWX      0.002500
     53 BR3         6.2860    2.2700   11.5380 br        1 RWX      0.133000
@<TRIPOS>BOND
     1    1   19 1   
     2    1   20 1   
     3    2    3 1   
     4    2    7 1   
     5    2   49 1   
     6    3    5 1   
     7    3   53 1   
     8    4    6 1   
     9    4    8 1   
    10    4   21 1   
    11    5   10 1   
    12    5   22 1   
    13    6   11 1   
    14    6   30 1   
    15    7   17 1   
    16    7   22 1   
    17    7   32 1   
    18    8   19 1   
    19    8   23 1   
    20    9   21 1   
    21    9   24 1   
    22    9   30 1   
    23   10   25 1   
    24   10   26 1   
    25   11   27 1   
    26   11   28 1   
    27   12   37 1   
    28   12   38 1   
    29   12   40 1   
    30   12   41 1   
    31   13   24 1   
    32   13   39 1   
    33   14   16 1   
    34   14   43 1   
    35   15   16 1   
    36   15   25 1   
    37   15   44 1   
    38   16   29 1   
    39   17   33 1   
    40   17   34 1   
    41   17   35 1   
    42   18   29 1   
    43   18   47 1   
    44   20   23 1   
    45   20   31 1   
    46   23   48 1   
    47   24   42 1   
    48   25   36 1   
    49   45   46 1   
    50   48   50 1   
    51   51   52 1   
@<TRIPOS>SUBSTRUCTURE
     1 RWX         1 TEMP              0 ****  ****    0 ROOT
