@<TRIPOS>MOLECULE
molecule
   53    56     1     0     0
SMALL
bcc


@<TRIPOS>ATOM
      1 C28          0.0000     0.0000     0.0000 cc         1 RWX       0.538900
      2 C3           7.8140     3.7550    12.5370 cc         1 RWX      -0.060600
      3 C4           7.4130     4.1990    11.2710 cc         1 RWX      -0.054900
      4 C20          3.1930     0.0000     1.6550 cd         1 RWX       0.301300
      5 C5           7.4930     3.1180    10.4180 cd         1 RWX      -0.078900
      6 C21          4.2420    -0.1270     0.7660 cc         1 RWX      -0.033000
      7 C2           8.1220     2.4390    12.4370 cd         1 RWX      -0.151600
      8 C26          1.7750     0.0000     1.2410 cd         1 RWX       0.436500
      9 C18          4.8550     0.0950     3.1450 cc         1 RWX       0.549300
     10 C7           7.7420     2.4780     8.5390 c          1 RWX       0.652700
     11 C23          4.1340    -0.2700    -0.6390 c          1 RWX       0.868200
     12 C11          5.5100     1.4450     6.5060 c3         1 RWX      -0.111400
     13 C12          4.9800     1.4310     5.0710 c3         1 RWX       0.176800
     14 C14          6.8880     0.1390     4.3180 c3         1 RWX       0.138800
     15 C10          7.0400     1.3790     6.4800 c3         1 RWX       0.104700
     16 C15          7.4740     0.1160     5.7320 c3         1 RWX       0.144100
     17 C1           8.1220     2.1740    13.9210 c3         1 RWX       0.001200
     18 C17          7.8290    -2.1920     6.2730 c3         1 RWX       0.125700
     19 N27          1.3280     0.0000     0.0000 nc         1 RWX      -0.629000
     20 N29         -0.4310     0.0000     1.2360 nd         1 RWX      -0.599800
     21 N19          3.5780     0.1150     2.9110 nd         1 RWX      -0.718000
     22 N6           7.9330     2.0400    11.1550 na         1 RWX      -0.139100
     23 N30          0.7020     0.0000     2.0660 na         1 RWX      -0.071400
     24 N13          5.4230     0.2030     4.3960 nh         1 RWX      -0.656300
     25 N9           7.5500     1.3330     7.8530 ns         1 RWX      -0.526900
     26 O8           7.4900     3.5490     8.0170 o          1 RWX      -0.533100
     27 O24          3.0470    -0.1790    -1.1770 o          1 RWX      -0.786800
     28 O25          5.2370    -0.5080    -1.3800 o          1 RWX      -0.786800
     29 O16          6.9990    -1.0390     6.4270 os         1 RWX      -0.417600
     30 S22          5.7390    -0.0760     1.6930 ss         1 RWX      -0.198300
     31 H28         -0.6270     0.0000    -0.8830 h5         1 RWX       0.063100
     32 H6           8.0860     1.1150    10.8040 hn         1 RWX       0.302700
     33 H11C         7.1530     2.4270    14.3330 hc         1 RWX       0.049367
     34 H12C         8.3290     1.1260    14.1010 hc         1 RWX       0.049367
     35 H13C         8.8860     2.7790    14.3960 hc         1 RWX       0.049367
     36 H9           7.2240     0.5150     8.3270 hn         1 RWX       0.320500
     37 H111         5.1210     0.5890     7.0420 hc         1 RWX       0.065200
     38 H112         5.1970     2.3590     6.9970 hc         1 RWX       0.065200
     39 H121         5.3630     2.2930     4.5370 h1         1 RWX       0.057200
     40 H122         3.8970     1.4630     5.0870 h1         1 RWX       0.057200
     41 H10          7.4300     2.2520     5.9720 h1         1 RWX       0.093700
     42 H141         7.2580     1.0100     3.7900 h1         1 RWX       0.060700
     43 H142         7.1810    -0.7610     3.7920 h1         1 RWX       0.060700
     44 H15          8.5560     0.0880     5.6710 h1         1 RWX       0.047700
     45 H171         7.6820    -2.8570     7.1150 h1         1 RWX       0.032700
     46 H172         7.5670    -2.7060     5.3560 h1         1 RWX       0.032700
     47 H173         8.8680    -1.8860     6.2310 h1         1 RWX       0.032700
     48 C31          0.7200     0.0000     3.5300 c3         1 RWX       0.071600
     49 Cl3          7.9040     4.7190    13.9770 cl         1 RWX      -0.079400
     50 H311        -0.2900    -0.1220     3.9030 h1         1 RWX       0.048033
     51 H312         1.3370    -0.8160     3.8840 h1         1 RWX       0.048033
     52 H313         1.1250     0.9400     3.8860 h1         1 RWX       0.048033
     53 Br3          6.8680     5.9520    10.8170 br         1 RWX      -0.056100
@<TRIPOS>BOND
     1     1    19 1
     2     1    20 2
     3     2     3 1
     4     2     7 2
     5     2    49 1
     6     3     5 2
     7     3    53 1
     8     4     6 2
     9     4     8 1
    10     4    21 1
    11     5    10 1
    12     5    22 1
    13     6    11 1
    14     6    30 1
    15     7    17 1
    16     7    22 1
    17     8    19 2
    18     8    23 1
    19     9    21 2
    20     9    24 1
    21     9    30 1
    22    10    25 1
    23    10    26 2
    24    11    27 1
    25    11    28 1
    26    12    13 1
    27    12    15 1
    28    13    24 1
    29    14    16 1
    30    14    24 1
    31    15    16 1
    32    15    25 1
    33    16    29 1
    34    48    23 1
    35    18    29 1
    36    20    23 1
    37     1    31 1
    38    22    32 1
    39    17    33 1
    40    17    34 1
    41    17    35 1
    42    25    36 1
    43    12    37 1
    44    12    38 1
    45    13    39 1
    46    13    40 1
    47    15    41 1
    48    14    42 1
    49    14    43 1
    50    16    44 1
    51    48    50 1
    52    48    51 1
    53    48    52 1
    54    18    45 1
    55    18    46 1
    56    18    47 1
@<TRIPOS>SUBSTRUCTURE
     1 RWX         1 TEMP              0 ****  ****    0 ROOT
