@<TRIPOS>MOLECULE
RWY
   32    33     1     0     0
SMALL
bcc


@<TRIPOS>ATOM
      1 NAA         -3.8610    -1.7450    13.2120 n1         1 RWY      -0.330800
      2 CAB         -3.2990    -2.0690    12.2800 c1         1 RWY       0.288900
      3 CAC          0.0000     0.0000     0.0000 ca         1 RWY      -0.142000
      4 CAD          1.3820     0.0000     0.0000 ca         1 RWY      -0.060000
      5 CAE         -0.6940     0.0060     1.1960 ca         1 RWY      -0.060000
      6 CAF          2.0750     0.0000     1.1960 ca         1 RWY      -0.170500
      7 CAG         -0.0060     0.0120     2.3940 ca         1 RWY      -0.170500
      8 CAH          0.2470    -1.1690     6.5030 ca         1 RWY      -0.161500
      9 CAI          0.2490     1.2340     6.4810 ca         1 RWY      -0.161500
     10 CAJ          0.9700    -1.1800     5.3250 ca         1 RWY      -0.072500
     11 CAK          0.9810     1.2220     5.3100 ca         1 RWY      -0.072500
     12 CAL         -1.1670    -1.2190     8.8060 c3         1 RWY       0.221400
     13 CAM         -1.9610    -1.0060    10.0950 c3         1 RWY       0.063700
     14 SAP         -2.3920    -2.6120    10.8100 ss         1 RWY      -0.171200
     15 CAQ         -0.1140     0.0380     7.0820 ca         1 RWY       0.144100
     16 CAR          1.3820    -0.0000     2.3970 ca         1 RWY       0.142100
     17 CAS          1.3390     0.0160     4.7270 ca         1 RWY       0.066100
     18 HAC         -0.5420     0.0000    -0.9380 ha         1 RWY       0.105000
     19 HAD          1.9240    -0.0040    -0.9380 ha         1 RWY       0.102000
     20 HAE         -1.7770     0.0060     1.1940 ha         1 RWY       0.102000
     21 HAF          3.1590     0.0000     1.1940 ha         1 RWY       0.119500
     22 HAG         -0.5500     0.0160     3.3310 ha         1 RWY       0.119500
     23 HAH         -0.0410    -2.1030     6.9700 ha         1 RWY       0.121000
     24 HAI         -0.0300     2.1760     6.9360 ha         1 RWY       0.121000
     25 HAJ          1.2530    -2.1220     4.8720 ha         1 RWY       0.118000
     26 HAK          1.2660     2.1560     4.8390 ha         1 RWY       0.118000
     27 HAL         -0.2260    -1.7030     9.0370 h1         1 RWY       0.015700
     28 HALA        -1.7380    -1.8430     8.1290 h1         1 RWY       0.015700
     29 HAM         -2.8660    -0.4540     9.8750 h1         1 RWY       0.055700
     30 HAMA        -1.3590    -0.4470    10.8020 h1         1 RWY       0.055700
     31 OAO          2.0600     0.0050     3.5740 os         1 RWY      -0.218200
     32 OAN         -0.8270     0.0490     8.2410 os         1 RWY      -0.304900
@<TRIPOS>BOND
     1     1     2 3   
     2     2    14 1   
     3     3     4 ar  
     4     3     5 ar  
     5     3    18 1   
     6     4     6 ar  
     7     4    19 1   
     8     5     7 ar  
     9     5    20 1   
    10     6    16 ar  
    11     6    21 1   
    12     7    16 ar  
    13     7    22 1   
    14     8    10 ar  
    15     8    15 ar  
    16     8    23 1   
    17     9    11 ar  
    18     9    15 ar  
    19     9    24 1   
    20    10    17 ar  
    21    10    25 1   
    22    11    17 ar  
    23    11    26 1   
    24    12    13 1   
    25    12    27 1   
    26    12    28 1   
    27    12    32 1   
    28    13    14 1   
    29    13    29 1   
    30    13    30 1   
    31    15    32 1   
    32    16    31 1   
    33    17    31 1   
@<TRIPOS>SUBSTRUCTURE
     1 RWY         1 TEMP              0 ****  ****    0 ROOT
