@<TRIPOS>MOLECULE
RWZ
   62    65     1     0     0
SMALL
bcc


@<TRIPOS>ATOM
      1 CAA          0.0000     0.0000     0.0000 c3         1 RWZ      -0.067000
      2 CAB          2.2590     0.0000     1.3060 c3         1 RWZ      -0.067000
      3 CAC          1.6390     0.7410    -5.7110 c3         1 RWZ      -0.083000
      4 CAD          2.1630     0.0010    -1.1340 c2         1 RWZ      -0.178000
      5 CAE          0.0910     2.2420    -4.5660 c2         1 RWZ      -0.498000
      6 CAF          1.4150     0.1250    -2.4360 c3         1 RWZ      -0.073000
      7 CAG         -0.4720     2.8730    -3.3190 DU         1 RWZ      -0.120000
      8 CAH         -2.4700     3.1040    -1.9720 c3         1 RWZ      -0.108000
      9 CAI         -3.9410     2.6990    -1.8600 c3         1 RWZ      -0.099000
     10 CAJ          1.9060     1.3630    -3.1910 c3         1 RWZ      -0.139000
     11 CAK         -8.4700     5.0130     0.8040 c3         1 RWZ      -0.095000
     12 CAL         -6.1340     4.4330     1.4740 c3         1 RWZ      -0.093250
     13 CAM         -7.8150     2.6220     1.1090 c3         1 RWZ      -0.093250
     14 CAN         -6.5930     5.3210    -0.8160 c3         1 RWZ      -0.093250
     15 CAO         -8.2750     3.5100    -1.1800 c3         1 RWZ      -0.093250
     16 NAP         -1.8870     2.5050    -3.1790 n7         1 RWZ      -0.024000
     17 NAQ         -4.5240     3.2980    -0.6520 n7         1 RWZ      -0.064000
     18 CAR          1.5070     0.0000     0.0000 c2         1 RWZ      -0.131000
     19 CAS          1.1590     1.4860    -4.4940 c2         1 RWZ       0.090000
     20 CAT         -6.9960     5.3980     0.6590 c3         1 RWZ      -0.078500
     21 CAU         -8.6780     3.5870     0.2930 c3         1 RWZ      -0.078500
     22 CAV         -6.3420     3.0060     0.9630 c3         1 RWZ      -0.078500
     23 CAW         -6.8010     3.8940    -1.3270 c3         1 RWZ      -0.078500
     24 CAX         -5.9390     2.9290    -0.5110 c3         1 RWZ      -0.068000
     25 HAA         -0.3610    -0.7290    -0.7160 hc         1 RWZ       0.048333
     26 HAAA        -0.3610     0.9840    -0.2730 hc         1 RWZ       0.048333
     27 HAAB        -0.3610    -0.2560     0.9890 hc         1 RWZ       0.048333
     28 HAB          1.9250    -0.8300     1.9150 hc         1 RWZ       0.048333
     29 HABA         2.0740     0.9300     1.8290 hc         1 RWZ       0.048333
     30 HABB         3.3210    -0.1000     1.1110 hc         1 RWZ       0.048333
     31 HAC          2.7040     0.5650    -5.6300 hc         1 RWZ       0.059333
     32 HACA         1.4370     1.3300    -6.5980 hc         1 RWZ       0.059333
     33 HACB         1.1200    -0.2070    -5.7820 hc         1 RWZ       0.059333
     34 HAD          3.2460     0.0010    -1.1320 ha         1 RWZ       0.107000
     35 HAE          0.4900     3.1680    -4.1710 DU         1 RWZ       0.290000
     36 HAF          0.3550     0.2210    -2.2360 hc         1 RWZ       0.074000
     37 HAFA         1.5900    -0.7580    -3.0390 hc         1 RWZ       0.074000
     38 HAG         -0.3850     3.9510    -3.3890 ha         1 RWZ       0.040500
     39 HAGA         0.0790     2.5220    -2.4560 ha         1 RWZ       0.040500
     40 HAH         -1.9310     2.7540    -1.0990 h1         1 RWZ       0.047000
     41 HAHA        -2.3960     4.1830    -2.0320 h1         1 RWZ       0.047000
     42 HAI         -4.0140     1.6190    -1.7990 h1         1 RWZ       0.054000
     43 HAIA        -4.4790     3.0480    -2.7320 h1         1 RWZ       0.054000
     44 HAJ          2.9670     1.2660    -3.3910 hc         1 RWZ       0.069000
     45 HAJA         1.7320     2.2460    -2.5890 hc         1 RWZ       0.069000
     46 HAKA        -9.0800     5.6970     0.2260 hc         1 RWZ       0.053000
     47 HAL         -5.0900     4.7050     1.3700 hc         1 RWZ       0.056500
     48 HALA        -6.4190     4.4870     2.5180 hc         1 RWZ       0.056500
     49 HAM         -8.1010     2.6770     2.1530 hc         1 RWZ       0.056500
     50 HAMA        -7.9630     1.6110     0.7480 hc         1 RWZ       0.056500
     51 HAN         -5.5500     5.5930    -0.9200 hc         1 RWZ       0.056500
     52 HANA        -7.2040     6.0040    -1.3930 hc         1 RWZ       0.056500
     53 HAO         -8.4220     2.5000    -1.5430 hc         1 RWZ       0.056500
     54 HAOA        -8.8850     4.1930    -1.7580 hc         1 RWZ       0.056500
     55 HNAP        -2.3940     2.8160    -3.9840 hn         1 RWZ       0.065000
     56 HNAQ        -4.0160     2.9870     0.1530 hn         1 RWZ       0.051000
     57 HAT         -6.8480     6.4080     1.0210 hc         1 RWZ       0.061000
     58 HAU         -9.7210     3.3140     0.3970 hc         1 RWZ       0.061000
     59 HAV         -5.7310     2.3230     1.5400 hc         1 RWZ       0.062500
     60 HAW         -6.5160     3.8390    -2.3710 hc         1 RWZ       0.062500
     61 HAX         -6.0860     1.9190    -0.8730 h1         1 RWZ       0.053000
     62 HAK         -8.7560     5.0680     1.8480 hc         1 RWZ       0.053000
@<TRIPOS>BOND
     1     1    18 1   
     2     1    25 1   
     3     1    26 1   
     4     1    27 1   
     5     2    18 1   
     6     2    28 1   
     7     2    29 1   
     8     2    30 1   
     9     3    19 1   
    10     3    31 1   
    11     3    32 1   
    12     3    33 1   
    13     4     6 1   
    14     4    18 1   
    15     4    34 1   
    16     5     7 1   
    17     5    19 1   
    18     5    35 1   
    19     6    10 1   
    20     6    36 1   
    21     6    37 1   
    22     7    16 1   
    23     7    35 1   
    24     7    38 1   
    25     7    39 1   
    26     8     9 1   
    27     8    16 1   
    28     8    40 1   
    29     8    41 1   
    30     9    17 1   
    31     9    42 1   
    32     9    43 1   
    33    10    19 1   
    34    10    44 1   
    35    10    45 1   
    36    11    20 1   
    37    11    21 1   
    38    11    46 1   
    39    11    62 1   
    40    12    20 1   
    41    12    22 1   
    42    12    47 1   
    43    12    48 1   
    44    13    21 1   
    45    13    22 1   
    46    13    49 1   
    47    13    50 1   
    48    14    20 1   
    49    14    23 1   
    50    14    51 1   
    51    14    52 1   
    52    15    21 1   
    53    15    23 1   
    54    15    53 1   
    55    15    54 1   
    56    16    55 1   
    57    17    24 1   
    58    17    56 1   
    59    20    57 1   
    60    21    58 1   
    61    22    24 1   
    62    22    59 1   
    63    23    24 1   
    64    23    60 1   
    65    24    61 1   
@<TRIPOS>SUBSTRUCTURE
     1 RWZ         1 TEMP              0 ****  ****    0 ROOT
