@<TRIPOS>MOLECULE
molecule
   62    64     1     0     0
SMALL
bcc


@<TRIPOS>ATOM
      1 CAA          0.0000     0.0000     0.0000 c3         1 RWZ      -0.095400
      2 CAB          2.2590     0.0000     1.3060 c3         1 RWZ      -0.095400
      3 CAC          1.6390     0.7410    -5.7110 c3         1 RWZ      -0.051900
      4 CAD          2.1630     0.0010    -1.1340 c2         1 RWZ      -0.509200
      5 CAE          0.0910     2.2420    -4.5660 c2         1 RWZ      -0.176200
      6 CAF          1.4150     0.1250    -2.4360 c3         1 RWZ      -0.082200
      7 CAG         -0.4720     2.8730    -3.3190 c3         1 RWZ       0.185000
      8 CAH         -2.4700     3.1040    -1.9720 c3         1 RWZ       0.155800
      9 CAI         -3.9410     2.6990    -1.8600 c3         1 RWZ       0.154800
     10 CAJ          1.9060     1.3630    -3.1910 c3         1 RWZ      -0.008200
     11 CAK         -8.4700     5.0130     0.8040 c3         1 RWZ      -0.069400
     12 CAL         -6.1340     4.4330     1.4740 c3         1 RWZ      -0.065150
     13 CAM         -7.8150     2.6220     1.1090 c3         1 RWZ      -0.065150
     14 CAN         -6.5930     5.3210    -0.8160 c3         1 RWZ      -0.065150
     15 CAO         -8.2750     3.5100    -1.1800 c3         1 RWZ      -0.065150
     16 NAP         -1.8870     2.5050    -3.1790 n7         1 RWZ      -0.817200
     17 NAQ         -4.5240     3.2980    -0.6520 n7         1 RWZ      -0.817200
     18 CAR          1.5070     0.0000     0.0000 c2         1 RWZ       0.039600
     19 CAS          1.1590     1.4860    -4.4940 c2         1 RWZ      -0.138400
     20 CAT         -6.9960     5.3980     0.6590 c3         1 RWZ      -0.063700
     21 CAU         -8.6780     3.5870     0.2930 c3         1 RWZ      -0.063700
     22 CAV         -6.3420     3.0060     0.9630 c3         1 RWZ      -0.060200
     23 CAW         -6.8010     3.8940    -1.3270 c3         1 RWZ      -0.060200
     24 CAX         -5.9390     2.9290    -0.5110 c3         1 RWZ       0.178500
     25 HAA         -0.3610    -0.7660    -0.6750 hc         1 RWZ       0.051867
     26 HAAA        -0.3610     0.9680    -0.3260 hc         1 RWZ       0.051867
     27 HAAB        -0.3610    -0.2020     1.0010 hc         1 RWZ       0.051867
     28 HAB          3.3250     0.0050     1.1090 hc         1 RWZ       0.051867
     29 HABA         1.9940     0.8820     1.8760 hc         1 RWZ       0.051867
     30 HABB         2.0010    -0.8870     1.8710 hc         1 RWZ       0.051867
     31 HAC          0.9390    -0.0510    -5.9490 hc         1 RWZ       0.042367
     32 HACA         2.6140     0.3130    -5.5120 hc         1 RWZ       0.042367
     33 HACB         1.7090     1.4250    -6.5490 hc         1 RWZ       0.042367
     34 HAD          1.7010    -0.8530    -1.6130 ha         1 RWZ       0.323000
     35 HAE         -0.4450     2.3290    -5.5030 ha         1 RWZ       0.137000
     36 HAF          1.5900    -0.7580    -3.0390 hc         1 RWZ       0.029200
     37 HAFA         0.3550     0.2210    -2.2360 hc         1 RWZ       0.029200
     38 HAG          0.0790     2.5220    -2.4560 h1         1 RWZ       0.042700
     39 HAGA        -0.3850     3.9510    -3.3890 h1         1 RWZ       0.042700
     40 HAH         -2.3960     4.1830    -2.0330 h1         1 RWZ       0.036200
     41 HAHA        -1.9310     2.7540    -1.0990 h1         1 RWZ       0.036200
     42 HAI         -4.4790     3.0480    -2.7320 h1         1 RWZ       0.038200
     43 HAIA        -4.0140     1.6190    -1.7990 h1         1 RWZ       0.038200
     44 HAJ          2.9670     1.2660    -3.3910 hc         1 RWZ       0.063700
     45 HAJA         1.7320     2.2460    -2.5890 hc         1 RWZ       0.063700
     46 HAKA        -8.7560     5.0680     1.8480 hc         1 RWZ       0.039700
     47 HAL         -5.0900     4.7050     1.3700 hc         1 RWZ       0.043700
     48 HALA        -6.4190     4.4870     2.5180 hc         1 RWZ       0.043700
     49 HAM         -7.9630     1.6110     0.7480 hc         1 RWZ       0.043700
     50 HAMA        -8.1010     2.6770     2.1530 hc         1 RWZ       0.043700
     51 HAN         -5.5500     5.5930    -0.9200 hc         1 RWZ       0.043700
     52 HANA        -7.2040     6.0040    -1.3930 hc         1 RWZ       0.043700
     53 HAO         -8.8850     4.1930    -1.7580 hc         1 RWZ       0.043700
     54 HAOA        -8.4220     2.5000    -1.5430 hc         1 RWZ       0.043700
     55 HNAP        -1.9690     1.5080    -3.1310 hn         1 RWZ       0.348800
     56 HNAQ        -4.0160     2.9870     0.1530 hn         1 RWZ       0.349800
     57 HAT         -6.8480     6.4080     1.0210 hc         1 RWZ       0.047200
     58 HAU         -9.7210     3.3140     0.3970 hc         1 RWZ       0.047200
     59 HAV         -5.7310     2.3230     1.5400 hc         1 RWZ       0.046200
     60 HAW         -6.5160     3.8390    -2.3710 hc         1 RWZ       0.046200
     61 HAX         -6.0860     1.9190    -0.8730 h1         1 RWZ       0.025700
     62 HAK         -9.0800     5.6970     0.2260 hc         1 RWZ       0.039700
@<TRIPOS>BOND
     1     1    18 1
     2     1    25 1
     3     1    26 1
     4     1    27 1
     5    18     2 1
     6     2    28 1
     7     2    29 1
     8     2    30 1
     9     3    19 1
    10     3    31 1
    11     3    32 1
    12     3    33 1
    13     4     6 1
    14     4    18 2
    15     4    34 1
    16     5     7 1
    17     5    19 2
    18     5    35 1
    19    10     6 1
    20     6    36 1
    21     6    37 1
    22     7    16 1
    23     7    38 1
    24     7    39 1
    25     8    16 1
    26     8     9 1
    27     8    40 1
    28     8    41 1
    29    17     9 1
    30     9    42 1
    31     9    43 1
    32    19    10 1
    33    10    44 1
    34    10    45 1
    35    21    11 1
    36    20    11 1
    37    11    62 1
    38    11    46 1
    39    22    12 1
    40    12    20 1
    41    12    47 1
    42    12    48 1
    43    22    13 1
    44    13    21 1
    45    13    49 1
    46    13    50 1
    47    23    14 1
    48    20    14 1
    49    14    51 1
    50    14    52 1
    51    23    15 1
    52    21    15 1
    53    15    53 1
    54    15    54 1
    55    16    55 1
    56    17    24 1
    57    17    56 1
    58    20    57 1
    59    21    58 1
    60    22    24 1
    61    22    59 1
    62    24    23 1
    63    23    60 1
    64    24    61 1
@<TRIPOS>SUBSTRUCTURE
     1 RWZ         1 TEMP              0 ****  ****    0 ROOT
