@<TRIPOS>MOLECULE
RX0
   75    75     1     0     0
SMALL
bcc


@<TRIPOS>ATOM
      1 C1         -2.8180    1.1120    0.8050 c3        1 RX0     -0.032000
      2 C2          2.5450   -2.1020   -0.0930 c1        1 RX0      0.345000
      3 C3         -4.2450    1.2590    0.7580 c1        1 RX0     -0.132000
      4 C4          2.1890   -0.8430    0.1030 c2        1 RX0     -0.565000
      5 C5         -5.4350    1.3880    0.7430 c1        1 RX0     -0.250000
      6 C6          3.0930    0.1810    0.4720 c1        1 RX0     -0.031000
      7 O8         -5.1200   -4.2470    2.3610 o         1 RX0     -0.256000
      8 N9         -4.4790   -3.3230    0.3400 n4        1 RX0      0.107000
      9 C10        -4.9220   -3.5200   -2.1160 c3        1 RX0     -0.154000
     10 C11        -3.9770   -2.3570   -2.3560 c3        1 RX0     -0.179000
     11 C12        -2.9130   -2.3100   -1.2630 c3        1 RX0     -0.025000
     12 C13        -3.5620   -2.2580    0.0750 c2        1 RX0     -0.701000
     13 C14        -5.5440   -3.4650   -0.7260 c3        1 RX0     -0.187000
     14 C15        -1.8700   -1.1790   -1.4100 c3        1 RX0      0.164000
     15 O16        -0.9830   -1.2190   -0.2870 oh        1 RX0     -0.367000
     16 C17        -2.4380    0.2140   -1.5580 c2        1 RX0     -0.117000
     17 C18        -3.1020    0.6060   -2.6700 c2        1 RX0     -0.076000
     18 C19        -2.1600    1.2340   -0.5350 c2        1 RX0     -0.033000
     19 C20        -3.5330    1.9760   -2.8550 c2        1 RX0     -0.441000
     20 C21        -1.3410    2.2710   -0.8020 c2        1 RX0     -0.187000
     21 C22        -3.0750    3.0130   -2.1640 c1        1 RX0      0.154000
     22 C23        -0.9690   -1.4690   -2.6200 c3        1 RX0     -0.215000
     23 C24         1.1620   -4.9790   -2.8980 cx        1 RX0     -0.227500
     24 C25         0.2190   -5.3150   -1.7770 cx        1 RX0     -0.227500
     25 C26         1.6950   -5.1930   -1.5010 cx        1 RX0     -0.040000
     26 O27         2.3290   -6.4150   -1.2150 os        1 RX0     -0.252000
     27 C28         3.7410   -6.3450   -1.3510 c3        1 RX0     -0.072000
     28 C29        -7.0720   -2.0540    2.7340 c3        1 RX0     -0.195000
     29 C30        -7.1450   -1.0320    3.8700 c3        1 RX0     -0.014000
     30 C31        -5.6860   -0.9240    4.4090 c3        1 RX0     -0.064000
     31 C32        -4.7820   -1.2680    3.2060 c3        1 RX0     -0.151000
     32 C33        -5.6780   -1.8920    2.1270 c3        1 RX0     -0.129000
     33 O34        -7.6490    0.2130    3.4250 oh        1 RX0     -0.320000
     34 N35        -5.3300    0.3130    5.0590 n3        1 RX0     -0.319000
     35 H2         -2.5500    0.1040    1.2400 hc        1 RX0      0.118500
     36 H3         -2.4010    1.8940    1.5040 hc        1 RX0      0.118500
     37 H4          1.0960   -0.6320   -0.0450 ha        1 RX0      0.215000
     38 H5          2.6430    1.1790    0.6070 ha        1 RX0      0.036000
     39 H6         -6.4850    1.5300    0.7060 ha        1 RX0      0.221000
     40 H10        -3.9340   -4.1970    0.3200 hn        1 RX0      0.228000
     41 H10A       -5.7530   -3.4990   -2.8690 hc        1 RX0      0.089000
     42 H11        -4.3720   -4.4890   -2.2460 hc        1 RX0      0.089000
     43 H11A       -3.5050   -2.4680   -3.3660 hc        1 RX0      0.086500
     44 H12        -4.5660   -1.4030   -2.3460 hc        1 RX0      0.086500
     45 H13        -2.3140   -3.2690   -1.3440 hc        1 RX0      0.069000
     46 H13A       -3.8520   -1.2720    0.4520 hx        1 RX0      0.123000
     47 H14        -6.2180   -2.5680   -0.6520 hx        1 RX0      0.104000
     48 H14A       -6.1430   -4.3940   -0.5290 hx        1 RX0      0.104000
     49 HO16       -1.4720   -1.5840    0.4660 ho        1 RX0      0.239000
     50 H18        -3.3200   -0.0910   -3.4950 ha        1 RX0      0.132000
     51 H20        -4.2870    2.1500   -3.6460 ha        1 RX0      0.178000
     52 H21        -0.7660    2.3440   -1.7370 ha        1 RX0      0.131500
     53 H22        -1.1540    3.0720   -0.0750 ha        1 RX0      0.131500
     54 H23        -0.1660   -0.6980   -2.6830 hc        1 RX0      0.082667
     55 H23A       -1.5680   -1.4540   -3.5600 hc        1 RX0      0.082667
     56 H24        -0.4910   -2.4720   -2.5040 hc        1 RX0      0.082667
     57 H24A        1.3620   -5.7450   -3.6670 hc        1 RX0      0.113500
     58 H25         1.1630   -3.9560   -3.3140 hc        1 RX0      0.113500
     59 H25A       -0.4530   -4.5340   -1.3800 hc        1 RX0      0.113500
     60 H26        -0.2400   -6.3190   -1.7550 hc        1 RX0      0.113500
     61 H26A        2.1030   -4.3430   -0.9170 h1        1 RX0      0.139000
     62 H28         4.0220   -6.1030   -2.4050 h1        1 RX0      0.074000
     63 H28A        4.0940   -7.3700   -1.0730 h1        1 RX0      0.074000
     64 H28B        4.1670   -5.5800   -0.6560 h1        1 RX0      0.074000
     65 H29A       -5.7450   -1.1800    1.2540 hc        1 RX0      0.136000
     66 H30        -7.8690   -1.8630    1.9740 hc        1 RX0      0.110500
     67 H31        -7.8610   -1.3480    4.6740 h1        1 RX0      0.129000
     68 H32        -5.5650   -1.7430    5.1800 h1        1 RX0      0.114000
     69 H32A       -3.9790   -1.9740    3.5320 hc        1 RX0      0.114000
     70 H33        -4.2790   -0.3590    2.7820 hc        1 RX0      0.114000
     71 HO34       -7.0660    0.5240    2.7190 ho        1 RX0      0.200000
     72 HN35       -5.4230    1.0860    4.4270 hn        1 RX0      0.150500
     73 HN3A       -5.9300    0.4690    5.8460 hn        1 RX0      0.150500
     74 C7         -5.1120   -3.2160    1.6880 c2        1 RX0      0.295000
     75 H29        -7.2130   -3.0850    3.1470 hc        1 RX0      0.110500
@<TRIPOS>BOND
     1    1    3 1   
     2    1   18 1   
     3    1   35 1   
     4    1   36 1   
     5    2    4 1   
     6    3    5 1   
     7    4    6 1   
     8    4   37 1   
     9    5   39 1   
    10    6   38 1   
    11    7   74 1   
    12    8   12 1   
    13    8   13 1   
    14    8   40 1   
    15    8   74 1   
    16    9   10 1   
    17    9   13 1   
    18    9   41 1   
    19    9   42 1   
    20   10   11 1   
    21   10   43 1   
    22   10   44 1   
    23   11   12 1   
    24   11   14 1   
    25   11   45 1   
    26   12   46 1   
    27   13   47 1   
    28   13   48 1   
    29   14   15 1   
    30   14   16 1   
    31   14   22 1   
    32   15   49 1   
    33   16   17 1   
    34   16   18 1   
    35   17   19 1   
    36   17   50 1   
    37   18   20 1   
    38   19   21 1   
    39   19   51 1   
    40   20   52 1   
    41   20   53 1   
    42   22   54 1   
    43   22   55 1   
    44   22   56 1   
    45   23   24 1   
    46   23   25 1   
    47   23   57 1   
    48   23   58 1   
    49   24   25 1   
    50   24   59 1   
    51   24   60 1   
    52   25   26 1   
    53   25   61 1   
    54   26   27 1   
    55   27   62 1   
    56   27   63 1   
    57   27   64 1   
    58   28   29 1   
    59   28   32 1   
    60   28   66 1   
    61   28   75 1   
    62   29   30 1   
    63   29   33 1   
    64   29   67 1   
    65   30   31 1   
    66   30   34 1   
    67   30   68 1   
    68   31   32 1   
    69   31   69 1   
    70   31   70 1   
    71   32   65 1   
    72   32   74 1   
    73   33   71 1   
    74   34   72 1   
    75   34   73 1   
@<TRIPOS>SUBSTRUCTURE
     1 RX0         1 TEMP              0 ****  ****    0 ROOT
