@<TRIPOS>MOLECULE
molecule
   78    82     1     0     0
SMALL
bcc


@<TRIPOS>ATOM
      1 C1           0.0000     0.0000     0.0000 c          1 RX3       0.749100
      2 O2           1.2260     0.0000     0.0000 o          1 RX3      -0.598000
      3 O1          -0.7760     0.0000     1.1240 os         1 RX3      -0.434900
      4 C2          -0.0700     0.0010     2.3700 c3         1 RX3       0.203700
      5 C3          -1.0600     0.0010     3.4950 ca         1 RX3      -0.081300
      6 C4          -1.5150    -1.2060     4.0130 ca         1 RX3      -0.097000
      7 C6          -2.4370    -1.2060     5.0600 ca         1 RX3      -0.144000
      8 C8          -2.8980     0.0020     5.5830 ca         1 RX3      -0.131000
      9 C7          -2.4360     1.2100     5.0590 ca         1 RX3      -0.144000
     10 C5          -1.5150     1.2090     4.0110 ca         1 RX3      -0.097000
     11 P1          -0.8490    -1.5480    -3.1920 p5         1 RX3       1.008400
     12 O4           0.0670    -1.7140    -4.5160 o          1 RX3      -0.811500
     13 C9          -0.2960     0.0050    -2.4850 c3         1 RX3      -0.042500
     14 N1          -0.8060     0.0040    -1.1200 ns         1 RX3      -0.563900
     15 C10         -0.8010     1.2280    -3.2590 c3         1 RX3      -0.033100
     16 C11         -0.3730     2.5420    -2.6520 ca         1 RX3      -0.051300
     17 C12          0.8210     3.1200    -3.0530 ca         1 RX3      -0.120000
     18 C14          1.2160     4.3340    -2.4910 ca         1 RX3      -0.138000
     19 C16          0.4120     4.9550    -1.5350 ca         1 RX3      -0.155000
     20 C15         -0.7870     4.3610    -1.1410 ca         1 RX3      -0.138000
     21 C13         -1.1830     3.1460    -1.7020 ca         1 RX3      -0.120000
     22 C19         -1.6310    -4.8860    -1.7050 c          1 RX3       0.691100
     23 O5          -1.2580    -5.5240    -0.7270 o          1 RX3      -0.653100
     24 C18         -0.6150    -4.2720    -2.6190 c3         1 RX3      -0.106700
     25 C20          0.6760    -5.0940    -2.6220 c3         1 RX3      -0.058400
     26 C21          1.6310    -4.3250    -1.7220 c3         1 RX3      -0.077400
     27 C22          1.2900    -2.8780    -2.0200 c3         1 RX3      -0.061400
     28 C17         -0.2330    -2.8700    -2.1200 c3         1 RX3      -0.240900
     29 N2          -2.9400    -4.6570    -2.0840 ns         1 RX3      -0.534900
     30 C23         -4.0760    -5.1600    -1.3460 c3         1 RX3       0.017700
     31 C24         -4.4260    -6.5760    -1.7760 c          1 RX3       0.881600
     32 O6          -5.3040    -7.2400    -1.2350 o          1 RX3      -0.854800
     33 C25         -5.2950    -4.2430    -1.5160 c3         1 RX3      -0.013200
     34 C26         -5.2210    -3.0010    -0.6610 cc         1 RX3      -0.143400
     35 C27         -4.6630    -1.8280    -1.0530 cd         1 RX3      -0.092100
     36 C28         -5.7150    -2.8820     0.6480 ca         1 RX3      -0.073800
     37 N3          -4.7950    -0.9570    -0.0040 na         1 RX3      -0.190400
     38 C29         -5.4340    -1.5740     1.0480 ca         1 RX3      -0.058200
     39 C30         -6.3740    -3.7410     1.5500 ca         1 RX3      -0.062000
     40 C31         -5.7820    -1.0800     2.3100 ca         1 RX3      -0.158000
     41 C32         -6.7280    -3.2600     2.8160 ca         1 RX3      -0.189000
     42 C33         -6.4350    -1.9490     3.1880 ca         1 RX3      -0.138000
     43 OXT         -3.7000    -7.0520    -2.8160 o          1 RX3      -0.854800
     44 H21          0.5530    -0.8840     2.4340 h1         1 RX3       0.047700
     45 H22          0.5520     0.8860     2.4330 h1         1 RX3       0.047700
     46 H4          -1.0750    -2.1380     3.6790 ha         1 RX3       0.139000
     47 H6          -2.8050    -2.1440     5.4580 ha         1 RX3       0.125000
     48 H8          -3.6140     0.0020     6.3950 ha         1 RX3       0.117000
     49 H7          -2.8180     2.1480     5.4440 ha         1 RX3       0.125000
     50 H5          -1.1460     2.2110     3.8260 ha         1 RX3       0.139000
     51 H9           0.7870     0.0210    -2.4620 h1         1 RX3       0.101700
     52 HN1         -1.7980     0.0080    -0.9870 hn         1 RX3       0.323500
     53 H101        -1.8840     1.1960    -3.2890 hc         1 RX3       0.066200
     54 H102        -0.4240     1.1760    -4.2740 hc         1 RX3       0.066200
     55 H12          1.4420     2.6330    -3.7960 ha         1 RX3       0.136500
     56 H14          2.1470     4.7950    -2.7970 ha         1 RX3       0.113000
     57 H16          0.7190     5.8970    -1.0990 ha         1 RX3       0.109000
     58 H15         -1.4120     4.8430    -0.3980 ha         1 RX3       0.113000
     59 H13         -2.1130     2.6810    -1.4000 ha         1 RX3       0.136500
     60 H18         -1.0100    -4.2070    -3.6250 hc         1 RX3       0.076700
     61 H17         -0.6430    -2.7340    -1.1260 hc         1 RX3       0.048700
     62 H211         2.6590    -4.5370    -1.9880 hc         1 RX3       0.025200
     63 H212         1.4420    -4.5550    -0.6810 hc         1 RX3       0.025200
     64 H221         1.6190    -2.2380    -1.2100 hc         1 RX3       0.046700
     65 H222         1.7330    -2.5700    -2.9590 hc         1 RX3       0.046700
     66 HN2         -3.1090    -4.1170    -2.9090 hn         1 RX3       0.328500
     67 H23         -3.8130    -5.1820    -0.2960 h1         1 RX3       0.054700
     68 H251        -5.3660    -3.9460    -2.5550 hc         1 RX3       0.051200
     69 H252        -6.1870    -4.7960    -1.2490 hc         1 RX3       0.051200
     70 H27         -4.3720    -1.5680    -2.0630 h4         1 RX3       0.221000
     71 HN3         -4.4740    -0.0090    -0.0030 hn         1 RX3       0.277700
     72 H30         -6.6050    -4.7610     1.2670 ha         1 RX3       0.150000
     73 H31         -5.5520    -0.0600     2.5960 ha         1 RX3       0.113000
     74 H32         -7.2350    -3.9140     3.5150 ha         1 RX3       0.109000
     75 H33         -6.7180    -1.5990     4.1730 ha         1 RX3       0.101000
     76 H201         1.0770    -5.1590    -3.6270 hc         1 RX3       0.044200
     77 O3          -2.3240    -1.6150    -3.4630 o          1 RX3      -0.811500
     78 H202         0.4920    -6.0820    -2.2180 hc         1 RX3       0.044200
@<TRIPOS>BOND
     1    43    31 1
     2    31    32 1
     3    31    30 1
     4    30    33 1
     5    30    29 1
     6    30    67 1
     7    33    34 1
     8    33    68 1
     9    33    69 1
    10    34    35 2
    11    34    36 1
    12    36    38 ar
    13    36    39 ar
    14    39    41 ar
    15    39    72 1
    16    41    42 ar
    17    41    74 1
    18    42    40 ar
    19    42    75 1
    20    40    38 ar
    21    40    73 1
    22    38    37 1
    23    37    35 1
    24    37    71 1
    25    35    70 1
    26    29    22 1
    27    29    66 1
    28    22    23 2
    29    22    24 1
    30    24    25 1
    31    24    28 1
    32    24    60 1
    33    25    26 1
    34    25    76 1
    35    25    78 1
    36    26    27 1
    37    26    62 1
    38    26    63 1
    39    27    28 1
    40    27    64 1
    41    27    65 1
    42    28    11 1
    43    28    61 1
    44    11    77 1
    45    11    12 1
    46    11    13 1
    47    13    15 1
    48    13    14 1
    49    13    51 1
    50    15    16 1
    51    15    53 1
    52    15    54 1
    53    16    17 ar
    54    16    21 ar
    55    21    20 ar
    56    21    59 1
    57    20    19 ar
    58    20    58 1
    59    19    18 ar
    60    19    57 1
    61    18    17 ar
    62    18    56 1
    63    17    55 1
    64    14     1 1
    65    14    52 1
    66     1     2 2
    67     1     3 1
    68     3     4 1
    69     4     5 1
    70     4    44 1
    71     4    45 1
    72     5     6 ar
    73     5    10 ar
    74     6     7 ar
    75     6    46 1
    76    10     9 ar
    77    10    50 1
    78     9     8 ar
    79     9    49 1
    80     8     7 ar
    81     8    48 1
    82     7    47 1
@<TRIPOS>SUBSTRUCTURE
     1 RX3         1 TEMP              0 ****  ****    0 ROOT
