@<TRIPOS>MOLECULE
RX3
   78    82     1     0     0
SMALL
bcc


@<TRIPOS>ATOM
      1 C1           0.0000     0.0000     0.0000 c          1 RX3       0.673100
      2 O2           1.2260     0.0000     0.0000 o          1 RX3      -0.655000
      3 O1          -0.7760     0.0000     1.1240 os         1 RX3      -0.430900
      4 C2          -0.0700     0.0010     2.3700 c3         1 RX3       0.287700
      5 C3          -1.0600     0.0010     3.4950 ca         1 RX3      -0.095300
      6 C4          -1.5150    -1.2060     4.0130 ca         1 RX3      -0.069500
      7 C6          -2.4370    -1.2060     5.0600 ca         1 RX3      -0.120500
      8 C8          -2.8980     0.0020     5.5830 ca         1 RX3      -0.107000
      9 C7          -2.4360     1.2100     5.0590 ca         1 RX3      -0.120500
     10 C5          -1.5150     1.2090     4.0110 ca         1 RX3      -0.069500
     11 P1          -0.8490    -1.5480    -3.1920 p5         1 RX3       0.361400
     12 O4           0.0670    -1.7140    -4.5160 o          1 RX3      -0.633000
     13 C9          -0.2960     0.0050    -2.4850 c3         1 RX3       0.003500
     14 N1          -0.8060     0.0040    -1.1200 ns         1 RX3      -0.147900
     15 C10         -0.8010     1.2280    -3.2590 c3         1 RX3       0.038900
     16 C11         -0.3730     2.5420    -2.6520 ca         1 RX3      -0.062300
     17 C12          0.8210     3.1200    -3.0530 ca         1 RX3      -0.096000
     18 C14          1.2160     4.3340    -2.4910 ca         1 RX3      -0.112500
     19 C16          0.4120     4.9550    -1.5350 ca         1 RX3      -0.134000
     20 C15         -0.7870     4.3610    -1.1410 ca         1 RX3      -0.112500
     21 C13         -1.1830     3.1460    -1.7020 ca         1 RX3      -0.096000
     22 C19         -1.6310    -4.8860    -1.7050 c          1 RX3       0.603100
     23 O5          -1.2580    -5.5240    -0.7270 o          1 RX3      -0.702100
     24 C18         -0.6150    -4.2720    -2.6190 c3         1 RX3      -0.091700
     25 C20          0.6760    -5.0940    -2.6220 c3         1 RX3      -0.012400
     26 C21          1.6310    -4.3250    -1.7220 c3         1 RX3      -0.031400
     27 C22          1.2900    -2.8780    -2.0200 c3         1 RX3      -0.018400
     28 C17         -0.2330    -2.8700    -2.1200 c3         1 RX3      -0.028900
     29 N2          -2.9400    -4.6570    -2.0840 ns         1 RX3      -0.128900
     30 C23         -4.0760    -5.1600    -1.3460 c3         1 RX3      -0.096300
     31 C24         -4.4260    -6.5760    -1.7760 c          1 RX3       0.978600
     32 O6          -5.3040    -7.2400    -1.2350 o          1 RX3      -0.904300
     33 C25         -5.2950    -4.2430    -1.5160 c3         1 RX3       0.055800
     34 C26         -5.2210    -3.0010    -0.6610 cc         1 RX3      -0.137400
     35 C27         -4.6630    -1.8280    -1.0530 cd         1 RX3      -0.263100
     36 C28         -5.7150    -2.8820     0.6480 ca         1 RX3      -0.075800
     37 N3          -4.7950    -0.9570    -0.0040 na         1 RX3       0.342600
     38 C29         -5.4340    -1.5740     1.0480 ca         1 RX3      -0.246200
     39 C30         -6.3740    -3.7410     1.5500 ca         1 RX3      -0.018000
     40 C31         -5.7820    -1.0800     2.3100 ca         1 RX3      -0.123000
     41 C32         -6.7280    -3.2600     2.8160 ca         1 RX3      -0.172000
     42 C33         -6.4350    -1.9490     3.1880 ca         1 RX3      -0.116000
     43 OXT         -3.7000    -7.0520    -2.8160 o          1 RX3      -0.904300
     44 H21          0.5530    -0.8840     2.4340 h1         1 RX3       0.007700
     45 H22          0.5520     0.8860     2.4330 h1         1 RX3       0.007700
     46 H4          -1.0750    -2.1380     3.6790 ha         1 RX3       0.111000
     47 H6          -2.8050    -2.1440     5.4580 ha         1 RX3       0.099000
     48 H8          -3.6140     0.0020     6.3950 ha         1 RX3       0.091000
     49 H7          -2.8180     2.1480     5.4440 ha         1 RX3       0.099000
     50 H5          -1.1460     2.2110     3.8260 ha         1 RX3       0.111000
     51 H9           0.7870     0.0210    -2.4620 h1         1 RX3       0.076700
     52 HN1         -1.7980     0.0080    -0.9870 hn         1 RX3       0.172500
     53 H101        -1.8840     1.1960    -3.2890 hc         1 RX3       0.033700
     54 H102        -0.4240     1.1760    -4.2740 hc         1 RX3       0.033700
     55 H12          1.4420     2.6330    -3.7960 ha         1 RX3       0.111000
     56 H14          2.1470     4.7950    -2.7970 ha         1 RX3       0.088000
     57 H16          0.7190     5.8970    -1.0990 ha         1 RX3       0.086000
     58 H15         -1.4120     4.8430    -0.3980 ha         1 RX3       0.088000
     59 H13         -2.1130     2.6810    -1.4000 ha         1 RX3       0.111000
     60 H18         -1.0100    -4.2070    -3.6250 hc         1 RX3       0.056700
     61 H17         -0.6430    -2.7340    -1.1260 hc         1 RX3       0.017700
     62 H211         2.6590    -4.5370    -1.9880 hc         1 RX3      -0.002300
     63 H212         1.4420    -4.5550    -0.6810 hc         1 RX3      -0.002300
     64 H221         1.6190    -2.2380    -1.2100 hc         1 RX3       0.023700
     65 H222         1.7330    -2.5700    -2.9590 hc         1 RX3       0.023700
     66 HN2         -3.1090    -4.1170    -2.9090 hn         1 RX3       0.190500
     67 H23         -3.8130    -5.1820    -0.2960 h1         1 RX3       0.035700
     68 H251        -5.3660    -3.9460    -2.5550 hc         1 RX3       0.022200
     69 H252        -6.1870    -4.7960    -1.2490 hc         1 RX3       0.022200
     70 H27         -4.3720    -1.5680    -2.0630 h4         1 RX3       0.196000
     71 HN3         -4.4740    -0.0090    -0.0030 hn         1 RX3       0.101700
     72 H30         -6.6050    -4.7610     1.2670 ha         1 RX3       0.120000
     73 H31         -5.5520    -0.0600     2.5960 ha         1 RX3       0.091000
     74 H32         -7.2350    -3.9140     3.5150 ha         1 RX3       0.088000
     75 H33         -6.7180    -1.5990     4.1730 ha         1 RX3       0.078000
     76 H201         1.0770    -5.1590    -3.6270 hc         1 RX3       0.015700
     77 O3          -2.3240    -1.6150    -3.4630 o          1 RX3      -0.633000
     78 H202         0.4920    -6.0820    -2.2180 hc         1 RX3       0.015700
@<TRIPOS>BOND
     1     1     2 2   
     2     1     3 1   
     3     1    14 1   
     4     3     4 1   
     5     4     5 1   
     6     4    44 1   
     7     4    45 1   
     8     5     6 ar  
     9     5    10 ar  
    10     6     7 ar  
    11     6    46 1   
    12     7     8 ar  
    13     7    47 1   
    14     8     9 ar  
    15     8    48 1   
    16     9    10 ar  
    17     9    49 1   
    18    10    50 1   
    19    11    12 1   
    20    11    13 1   
    21    11    28 1   
    22    11    77 1   
    23    13    14 1   
    24    13    15 1   
    25    13    51 1   
    26    14    52 1   
    27    15    16 1   
    28    15    53 1   
    29    15    54 1   
    30    16    17 ar  
    31    16    21 ar  
    32    17    18 ar  
    33    17    55 1   
    34    18    19 ar  
    35    18    56 1   
    36    19    20 ar  
    37    19    57 1   
    38    20    21 ar  
    39    20    58 1   
    40    21    59 1   
    41    22    23 2   
    42    22    24 1   
    43    22    29 1   
    44    24    25 1   
    45    24    28 1   
    46    24    60 1   
    47    25    26 1   
    48    25    76 1   
    49    25    78 1   
    50    26    27 1   
    51    26    62 1   
    52    26    63 1   
    53    27    28 1   
    54    27    64 1   
    55    27    65 1   
    56    28    61 1   
    57    29    30 1   
    58    29    66 1   
    59    30    31 1   
    60    30    33 1   
    61    30    67 1   
    62    31    32 1   
    63    31    43 1   
    64    33    34 1   
    65    33    68 1   
    66    33    69 1   
    67    34    35 2   
    68    34    36 1   
    69    35    37 1   
    70    35    70 1   
    71    36    38 ar  
    72    36    39 ar  
    73    37    38 1   
    74    37    71 1   
    75    38    40 ar  
    76    39    41 ar  
    77    39    72 1   
    78    40    42 ar  
    79    40    73 1   
    80    41    42 ar  
    81    41    74 1   
    82    42    75 1   
@<TRIPOS>SUBSTRUCTURE
     1 RX3         1 TEMP              0 ****  ****    0 ROOT
