@<TRIPOS>MOLECULE
RX5
   77    79     1     0     0
SMALL
bcc


@<TRIPOS>ATOM
      1 C1           0.0000     0.0000     0.0000 c3         1 RX5       0.150100
      2 N1           1.4690     0.0000     0.0000 n7         1 RX5      -0.578200
      3 O1           1.0200    -3.7860     2.8890 o          1 RX5      -0.703100
      4 C2           1.9960     0.0000     1.3720 c3         1 RX5       0.094500
      5 O2           1.3330    -8.8810     1.0510 os         1 RX5      -0.409600
      6 C3           1.5050    -1.2490     2.1060 c3         1 RX5       0.022000
      7 N3           1.7880    -4.7560     1.0450 n          1 RX5      -0.175800
      8 O3           4.7070   -11.9470     2.4550 o          1 RX5      -0.663000
      9 C4           1.5410    -3.6650     1.7970 c          1 RX5       0.602100
     10 N4           2.7720   -10.8650     2.5880 ns         1 RX5      -0.174900
     11 O4           4.0340   -11.3590     4.4870 os         1 RX5      -0.428900
     12 C5           1.3340    -6.0840     1.4790 c3         1 RX5       0.049000
     13 C6           0.5120    -6.7180     0.3530 c3         1 RX5      -0.068700
     14 C7           1.3390    -6.7270    -0.9340 c3         1 RX5      -0.026400
     15 C8           1.6780    -5.2890    -1.3340 c3         1 RX5      -0.039400
     16 C9           2.5090    -4.6390    -0.2310 c3         1 RX5       0.047000
     17 C10          0.1450    -8.1540     0.7350 c3         1 RX5       0.248400
     18 C11          1.5040     1.2490     2.1060 c3         1 RX5      -0.020400
     19 C12          2.0970     2.4950     1.4450 c3         1 RX5      -0.094700
     20 C13          3.6170     2.4940     1.6210 c3         1 RX5       0.210400
     21 O14          4.1620     3.6870     1.0540 os         1 RX5      -0.406600
     22 C15          3.6910     4.8910     1.6620 c3         1 RX5       0.213400
     23 C16          2.1730     4.9890     1.4880 c3         1 RX5      -0.065400
     24 C17          1.5160     3.7500     2.1040 c3         1 RX5      -0.019400
     25 C19          2.5730   -10.9530     1.1390 c3         1 RX5       0.061000
     26 C20          3.8770   -11.3950     3.1510 c          1 RX5       0.677100
     27 C21         -0.7680    -8.1370     1.9340 ca         1 RX5      -0.128300
     28 C22         -2.1320    -8.2870     1.7670 ca         1 RX5      -0.091000
     29 C23         -2.9690    -8.2730     2.8680 ca         1 RX5      -0.034600
     30 C24         -2.4410    -8.1080     4.1360 ca         1 RX5      -0.092000
     31 C25         -1.0770    -7.9580     4.3020 ca         1 RX5      -0.084000
     32 C26         -0.2400    -7.9780     3.2010 ca         1 RX5      -0.083000
     33 C27          5.2210   -11.9980     5.0290 c3         1 RX5       0.287700
     34 Cl2         -4.6820    -8.4610     2.6590 cl         1 RX5      -0.027400
     35 H1          -0.3610    -0.1400    -1.0120 h1         1 RX5       0.009367
     36 H1A         -0.3610    -0.8060     0.6270 h1         1 RX5       0.009367
     37 H1B         -0.3610     0.9460     0.3840 h1         1 RX5       0.009367
     38 HN1          1.8030    -0.8090    -0.4860 hn         1 RX5       0.248800
     39 H2           3.0790     0.0000     1.3430 h1         1 RX5       0.044700
     40 HN2          2.4170    -2.3520     0.5040 hn         1 RX5       0.183500
     41 H3           0.4280    -1.2060     2.2120 h1         1 RX5       0.037200
     42 H3A          1.9630    -1.2950     3.0860 h1         1 RX5       0.037200
     43 HN4          2.0770   -10.4320     3.1630 hn         1 RX5       0.182500
     44 H5           2.1930    -6.7080     1.6950 h1         1 RX5       0.051200
     45 H5A          0.7180    -5.9840     2.3650 h1         1 RX5       0.051200
     46 H6          -0.3900    -6.1390     0.1970 hc         1 RX5       0.046700
     47 H7           0.7660    -7.1940    -1.7260 hc         1 RX5       0.024200
     48 H7A          2.2550    -7.2800    -0.7690 hc         1 RX5       0.024200
     49 H8           0.7620    -4.7280    -1.4720 hc         1 RX5       0.021200
     50 H8A          2.2470    -5.2960    -2.2560 hc         1 RX5       0.021200
     51 H9           2.6640    -3.5920    -0.4640 h1         1 RX5       0.019700
     52 H9A          3.4650    -5.1440    -0.1530 h1         1 RX5       0.019700
     53 H10         -0.3600    -8.6300    -0.0960 h1         1 RX5       0.016700
     54 H11          0.4230     1.2950     2.0580 hc         1 RX5       0.026200
     55 H11A         1.8180     1.2060     3.1420 hc         1 RX5       0.026200
     56 H12          1.8570     2.4990     0.3890 hc         1 RX5       0.059700
     57 H13          4.0380     1.6320     1.1180 h1         1 RX5       0.009200
     58 H13A         3.8580     2.4560     2.6770 h1         1 RX5       0.009200
     59 H15          3.9320     4.8790     2.7180 h1         1 RX5       0.005700
     60 H15A         4.1630     5.7430     1.1870 h1         1 RX5       0.005700
     61 H16          1.9330     5.0380     0.4330 hc         1 RX5       0.021700
     62 H16A         1.8090     5.8770     1.9890 hc         1 RX5       0.021700
     63 H17          0.4470     3.7860     1.9330 hc         1 RX5       0.014700
     64 H17A         1.7180     3.7260     3.1680 hc         1 RX5       0.014700
     65 H18          0.4460   -10.7190     1.3400 h1         1 RX5       0.003200
     66 H18A         1.0610   -10.4210    -0.2920 h1         1 RX5       0.003200
     67 H19          2.5440   -11.9940     0.8410 h1         1 RX5       0.032700
     68 H19A         3.3900   -10.4550     0.6320 h1         1 RX5       0.032700
     69 H22         -2.5450    -8.4170     0.7740 ha         1 RX5       0.114000
     70 H24         -3.0970    -8.0950     4.9990 ha         1 RX5       0.116000
     71 H25         -0.6630    -7.8310     5.2950 ha         1 RX5       0.110000
     72 H26          0.8290    -7.8600     3.3320 ha         1 RX5       0.124000
     73 H27          5.2170   -13.0490     4.7650 h1         1 RX5      -0.000633
     74 H27A         6.1050   -11.5260     4.6180 h1         1 RX5      -0.000633
     75 H27B         5.2250   -11.8960     6.1070 h1         1 RX5      -0.000633
     76 N2           1.8720    -2.4420     1.3390 ns         1 RX5      -0.249900
     77 C18          1.2520   -10.2790     0.7650 c3         1 RX5       0.191400
@<TRIPOS>BOND
     1     1     2 1   
     2     1    35 1   
     3     1    36 1   
     4     1    37 1   
     5     2     4 1   
     6     2    38 1   
     7     3     9 2   
     8     4     6 1   
     9     4    18 1   
    10     4    39 1   
    11     5    17 1   
    12     5    77 1   
    13     6    41 1   
    14     6    42 1   
    15     6    76 1   
    16     7     9 1   
    17     7    12 1   
    18     7    16 1   
    19     8    26 2   
    20     9    76 1   
    21    10    25 1   
    22    10    26 1   
    23    10    43 1   
    24    11    26 1   
    25    11    33 1   
    26    12    13 1   
    27    12    44 1   
    28    12    45 1   
    29    13    14 1   
    30    13    17 1   
    31    13    46 1   
    32    14    15 1   
    33    14    47 1   
    34    14    48 1   
    35    15    16 1   
    36    15    49 1   
    37    15    50 1   
    38    16    51 1   
    39    16    52 1   
    40    17    27 1   
    41    17    53 1   
    42    18    19 1   
    43    18    54 1   
    44    18    55 1   
    45    19    20 1   
    46    19    24 1   
    47    19    56 1   
    48    20    21 1   
    49    20    57 1   
    50    20    58 1   
    51    21    22 1   
    52    22    23 1   
    53    22    59 1   
    54    22    60 1   
    55    23    24 1   
    56    23    61 1   
    57    23    62 1   
    58    24    63 1   
    59    24    64 1   
    60    25    67 1   
    61    25    68 1   
    62    25    77 1   
    63    27    28 ar  
    64    27    32 ar  
    65    28    29 ar  
    66    28    69 1   
    67    29    30 ar  
    68    29    34 1   
    69    30    31 ar  
    70    30    70 1   
    71    31    32 ar  
    72    31    71 1   
    73    32    72 1   
    74    33    73 1   
    75    33    74 1   
    76    33    75 1   
    77    40    76 1   
    78    65    77 1   
    79    66    77 1   
@<TRIPOS>SUBSTRUCTURE
     1 RX5         1 TEMP              0 ****  ****    0 ROOT
