@<TRIPOS>MOLECULE
molecule
   77    79     1     0     0
SMALL
bcc


@<TRIPOS>ATOM
      1 C1           1.5070     0.0000     0.0000 c3         1 RX6       0.196400
      2 N1           1.6540    -0.5650     4.1660 ns         1 RX6      -0.569900
      3 O1           1.7440     9.4530     1.3090 os         1 RX6      -0.416600
      4 C2           1.2470     0.4070     7.6480 c3         1 RX6       0.159700
      5 O2           0.9330     0.2140     6.2430 os         1 RX6      -0.442900
      6 C3           0.0000     0.0000     0.0000 ca         1 RX6      -0.114300
      7 O3           1.9840     0.0000     1.3460 os         1 RX6      -0.423600
      8 C4          -0.6920    -0.7690    -0.9160 ca         1 RX6      -0.116000
      9 C5          -0.6910     0.7660     0.9220 ca         1 RX6      -0.105000
     10 C6          -2.0760    -0.7680    -0.9160 ca         1 RX6       0.027400
     11 C7          -2.0730     0.7660     0.9230 ca         1 RX6      -0.117000
     12 C8          -2.7660     0.0010     0.0030 ca         1 RX6      -0.116000
     13 C9           1.8820    -0.3570     5.4770 c          1 RX6       0.748100
     14 Cl28        -2.9440    -1.7340    -2.0670 cl         1 RX6      -0.111400
     15 C32          1.1590     6.8570    -2.0570 c3         1 RX6       0.129700
     16 C33          0.5700     6.4810    -3.4190 c3         1 RX6       0.138800
     17 C34          1.9980     8.1290    -2.1980 c3         1 RX6      -0.091400
     18 N35         -0.1340     5.1970    -3.3090 n7         1 RX6      -0.812200
     19 O35          2.9440    -0.6830     5.9690 o          1 RX6      -0.616000
     20 C36          2.4840     8.5750    -0.8180 c3         1 RX6      -0.108700
     21 C37          3.4240     9.7740    -0.9680 c3         1 RX6      -0.078400
     22 C38          3.8420    10.2600     0.4240 c3         1 RX6      -0.117400
     23 C39          2.5890    10.6020     1.2340 c3         1 RX6       0.136400
     24 C40          1.2830     8.9820     0.0410 c3         1 RX6       0.139400
     25 N42          2.0070     5.7640    -1.5740 ns         1 RX6      -0.591900
     26 O44          0.2750     4.7490    -0.6220 o          1 RX6      -0.669100
     27 N45          2.2200     3.6760    -0.5530 n          1 RX6      -0.508800
     28 C46          4.0430     2.4230    -1.5830 c3         1 RX6      -0.099400
     29 C47          3.5380     1.1900    -0.8320 c3         1 RX6      -0.076400
     30 C48          2.0170     1.2500    -0.7220 c3         1 RX6      -0.082700
     31 C49          1.6140     2.4940     0.0770 c3         1 RX6       0.128000
     32 C50          3.6690     3.6840    -0.7960 c3         1 RX6       0.107000
     33 C51         -0.7140     4.8030    -4.6010 c3         1 RX6       0.146100
     34 CT2          2.1770    -1.3060     1.8940 c3         1 RX6       0.115400
     35 CT3          2.6870    -1.1850     3.3320 c3         1 RX6       0.137000
     36 H1           1.8690    -0.8840    -0.5110 h1         1 RX6       0.045700
     37 HN1          0.7630    -0.3360     3.7710 hn         1 RX6       0.329500
     38 H2           1.4550    -0.5530     8.1060 h1         1 RX6       0.049033
     39 H2A          0.4050     0.8700     8.1460 h1         1 RX6       0.049033
     40 H2B          2.1170     1.0460     7.7380 h1         1 RX6       0.049033
     41 H4          -0.1510    -1.3710    -1.6350 ha         1 RX6       0.141000
     42 H5          -0.1490     1.3650     1.6430 ha         1 RX6       0.151000
     43 H7          -2.6140     1.3670     1.6440 ha         1 RX6       0.142000
     44 H8          -3.8490     0.0020     0.0040 ha         1 RX6       0.144000
     45 H32          0.3560     7.0300    -1.3520 h1         1 RX6       0.081700
     46 H33          1.3680     6.3950    -4.1460 h1         1 RX6       0.030700
     47 H33A        -0.1260     7.2490    -3.7350 h1         1 RX6       0.030700
     48 H34          1.3940     8.9130    -2.6390 hc         1 RX6       0.049700
     49 H34A         2.8520     7.9300    -2.8340 hc         1 RX6       0.049700
     50 HN35        -0.8620     5.2720    -2.6260 hn         1 RX6       0.375800
     51 H36          3.0120     7.7610    -0.3350 hc         1 RX6       0.069700
     52 H37          4.3040     9.4750    -1.5250 hc         1 RX6       0.041700
     53 H37A         2.9110    10.5720    -1.4900 hc         1 RX6       0.041700
     54 H38          4.4610    11.1430     0.3260 hc         1 RX6       0.050700
     55 H38A         4.3950     9.4770     0.9280 hc         1 RX6       0.050700
     56 H39          2.8780    10.9020     2.2330 h1         1 RX6       0.045200
     57 H39A         2.0560    11.4100     0.7480 h1         1 RX6       0.045200
     58 H40          0.7340     9.7710    -0.4590 h1         1 RX6       0.051700
     59 H40A         0.6380     8.1240     0.1880 h1         1 RX6       0.051700
     60 HN42         2.9890     5.7700    -1.7670 hn         1 RX6       0.309500
     61 H46          5.1200     2.3680    -1.6830 hc         1 RX6       0.049700
     62 H46A         3.5840     2.4610    -2.5640 hc         1 RX6       0.049700
     63 H47          3.8240     0.2960    -1.3750 hc         1 RX6       0.047700
     64 H47A         3.9710     1.1700     0.1610 hc         1 RX6       0.047700
     65 H48          1.5850     1.3030    -1.7140 hc         1 RX6       0.076700
     66 H49          1.9730     2.4030     1.0950 h1         1 RX6       0.072700
     67 H49A         0.5360     2.5940     0.0730 h1         1 RX6       0.072700
     68 H50          3.9350     4.5620    -1.3710 h1         1 RX6       0.043200
     69 H50A         4.1950     3.6890     0.1510 h1         1 RX6       0.043200
     70 H51          0.0820     4.6110    -5.3100 h1         1 RX6       0.027367
     71 H51A        -1.3080     3.9070    -4.4720 h1         1 RX6       0.027367
     72 H51B        -1.3430     5.6030    -4.9730 h1         1 RX6       0.027367
     73 HT2          2.9040    -1.8440     1.2970 h1         1 RX6       0.038200
     74 HT2A         1.2370    -1.8420     1.8880 h1         1 RX6       0.038200
     75 HT3          2.9180    -2.1710     3.7170 h1         1 RX6       0.064200
     76 HT3A         3.5800    -0.5730     3.3480 h1         1 RX6       0.064200
     77 C43          1.4580     4.7310    -0.9060 c          1 RX6       0.807100
@<TRIPOS>BOND
     1     1     6 1
     2     1     7 1
     3     1    30 1
     4     2    13 1
     5     2    35 1
     6     3    23 1
     7     3    24 1
     8     4     5 1
     9     5    13 1
    10     6     8 ar
    11     6     9 ar
    12     7    34 1
    13     8    10 ar
    14     9    11 ar
    15    10    12 ar
    16    10    14 1
    17    11    12 ar
    18    13    19 2
    19    15    16 1
    20    15    17 1
    21    15    25 1
    22    16    18 1
    23    17    20 1
    24    18    33 1
    25    20    21 1
    26    20    24 1
    27    21    22 1
    28    22    23 1
    29    25    77 1
    30    77    26 2
    31    77    27 1
    32    27    31 1
    33    27    32 1
    34    28    29 1
    35    28    32 1
    36    29    30 1
    37    30    31 1
    38    34    35 1
    39     1    36 1
    40     2    37 1
    41     4    38 1
    42     4    39 1
    43     4    40 1
    44     8    41 1
    45     9    42 1
    46    11    43 1
    47    12    44 1
    48    15    45 1
    49    16    46 1
    50    16    47 1
    51    17    48 1
    52    17    49 1
    53    18    50 1
    54    20    51 1
    55    21    52 1
    56    21    53 1
    57    22    54 1
    58    22    55 1
    59    23    56 1
    60    23    57 1
    61    24    58 1
    62    24    59 1
    63    25    60 1
    64    28    61 1
    65    28    62 1
    66    29    63 1
    67    29    64 1
    68    30    65 1
    69    31    66 1
    70    31    67 1
    71    32    68 1
    72    32    69 1
    73    33    70 1
    74    33    71 1
    75    33    72 1
    76    34    73 1
    77    34    74 1
    78    35    75 1
    79    35    76 1
@<TRIPOS>SUBSTRUCTURE
     1 RX6         1 TEMP              0 ****  ****    0 ROOT
