@<TRIPOS>MOLECULE
RX6
   77    79     1     0     0
SMALL
bcc


@<TRIPOS>ATOM
      1 C1           1.5070     0.0000     0.0000 c3         1 RX6       0.247400
      2 N1           1.6540    -0.5650     4.1660 ns         1 RX6      -0.171900
      3 O1           1.7440     9.4530     1.3090 os         1 RX6      -0.403600
      4 C2           1.2470     0.4070     7.6480 c3         1 RX6       0.287700
      5 O2           0.9330     0.2140     6.2430 os         1 RX6      -0.428900
      6 C3           0.0000     0.0000     0.0000 ca         1 RX6      -0.125300
      7 O3           1.9840     0.0000     1.3460 os         1 RX6      -0.408600
      8 C4          -0.6920    -0.7690    -0.9160 ca         1 RX6      -0.091000
      9 C5          -0.6910     0.7660     0.9220 ca         1 RX6      -0.081000
     10 C6          -2.0760    -0.7680    -0.9160 ca         1 RX6      -0.034600
     11 C7          -2.0730     0.7660     0.9230 ca         1 RX6      -0.085000
     12 C8          -2.7660     0.0010     0.0030 ca         1 RX6      -0.093000
     13 C9           1.8820    -0.3570     5.4770 c          1 RX6       0.677100
     14 Cl28        -2.9440    -1.7340    -2.0670 cl         1 RX6      -0.029400
     15 C32          1.1590     6.8570    -2.0570 c3         1 RX6       0.022700
     16 C33          0.5700     6.4810    -3.4190 c3         1 RX6       0.124800
     17 C34          1.9980     8.1290    -2.1980 c3         1 RX6      -0.033400
     18 N35         -0.1340     5.1970    -3.3090 n7         1 RX6      -0.591200
     19 O35          2.9440    -0.6830     5.9690 o          1 RX6      -0.664000
     20 C36          2.4840     8.5750    -0.8180 c3         1 RX6      -0.096700
     21 C37          3.4240     9.7740    -0.9680 c3         1 RX6      -0.019400
     22 C38          3.8420    10.2600     0.4240 c3         1 RX6      -0.065400
     23 C39          2.5890    10.6020     1.2340 c3         1 RX6       0.212400
     24 C40          1.2830     8.9820     0.0410 c3         1 RX6       0.206400
     25 N42          2.0070     5.7640    -1.5740 ns         1 RX6      -0.216900
     26 O44          0.2750     4.7490    -0.6220 o          1 RX6      -0.714100
     27 N45          2.2200     3.6760    -0.5530 n          1 RX6      -0.173800
     28 C46          4.0430     2.4230    -1.5830 c3         1 RX6      -0.040400
     29 C47          3.5380     1.1900    -0.8320 c3         1 RX6      -0.026400
     30 C48          2.0170     1.2500    -0.7220 c3         1 RX6      -0.068700
     31 C49          1.6140     2.4940     0.0770 c3         1 RX6       0.050000
     32 C50          3.6690     3.6840    -0.7960 c3         1 RX6       0.048000
     33 C51         -0.7140     4.8030    -4.6010 c3         1 RX6       0.178100
     34 CT2          2.1770    -1.3060     1.8940 c3         1 RX6       0.190400
     35 CT3          2.6870    -1.1850     3.3320 c3         1 RX6       0.061000
     36 H1           1.8690    -0.8840    -0.5110 h1         1 RX6       0.015700
     37 HN1          0.7630    -0.3360     3.7710 hn         1 RX6       0.182500
     38 H2           1.4550    -0.5530     8.1060 h1         1 RX6      -0.000633
     39 H2A          0.4050     0.8700     8.1460 h1         1 RX6      -0.000633
     40 H2B          2.1170     1.0460     7.7380 h1         1 RX6      -0.000633
     41 H4          -0.1510    -1.3710    -1.6350 ha         1 RX6       0.114000
     42 H5          -0.1490     1.3650     1.6430 ha         1 RX6       0.125000
     43 H7          -2.6140     1.3670     1.6440 ha         1 RX6       0.110000
     44 H8          -3.8490     0.0020     0.0040 ha         1 RX6       0.114000
     45 H32          0.3560     7.0300    -1.3520 h1         1 RX6       0.064700
     46 H33          1.3680     6.3950    -4.1460 h1         1 RX6       0.007200
     47 H33A        -0.1260     7.2490    -3.7350 h1         1 RX6       0.007200
     48 H34          1.3940     8.9130    -2.6390 hc         1 RX6       0.023200
     49 H34A         2.8520     7.9300    -2.8340 hc         1 RX6       0.023200
     50 HN35        -0.8620     5.2720    -2.6260 hn         1 RX6       0.282800
     51 H36          3.0120     7.7610    -0.3350 hc         1 RX6       0.042700
     52 H37          4.3040     9.4750    -1.5250 hc         1 RX6       0.015200
     53 H37A         2.9110    10.5720    -1.4900 hc         1 RX6       0.015200
     54 H38          4.4610    11.1430     0.3260 hc         1 RX6       0.021700
     55 H38A         4.3950     9.4770     0.9280 hc         1 RX6       0.021700
     56 H39          2.8780    10.9020     2.2330 h1         1 RX6       0.007200
     57 H39A         2.0560    11.4100     0.7480 h1         1 RX6       0.007200
     58 H40          0.7340     9.7710    -0.4590 h1         1 RX6       0.016700
     59 H40A         0.6380     8.1240     0.1880 h1         1 RX6       0.016700
     60 HN42         2.9890     5.7700    -1.7670 hn         1 RX6       0.178500
     61 H46          5.1200     2.3680    -1.6830 hc         1 RX6       0.021200
     62 H46A         3.5840     2.4610    -2.5640 hc         1 RX6       0.021200
     63 H47          3.8240     0.2960    -1.3750 hc         1 RX6       0.022700
     64 H47A         3.9710     1.1700     0.1610 hc         1 RX6       0.022700
     65 H48          1.5850     1.3030    -1.7140 hc         1 RX6       0.049700
     66 H49          1.9730     2.4030     1.0950 h1         1 RX6       0.049700
     67 H49A         0.5360     2.5940     0.0730 h1         1 RX6       0.049700
     68 H50          3.9350     4.5620    -1.3710 h1         1 RX6       0.019700
     69 H50A         4.1950     3.6890     0.1510 h1         1 RX6       0.019700
     70 H51          0.0820     4.6110    -5.3100 h1         1 RX6      -0.004300
     71 H51A        -1.3080     3.9070    -4.4720 h1         1 RX6      -0.004300
     72 H51B        -1.3430     5.6030    -4.9730 h1         1 RX6      -0.004300
     73 HT2          2.9040    -1.8440     1.2970 h1         1 RX6       0.002200
     74 HT2A         1.2370    -1.8420     1.8880 h1         1 RX6       0.002200
     75 HT3          2.9180    -2.1710     3.7170 h1         1 RX6       0.032700
     76 HT3A         3.5800    -0.5730     3.3480 h1         1 RX6       0.032700
     77 C43          1.4580     4.7310    -0.9060 c          1 RX6       0.615100
@<TRIPOS>BOND
     1     1     6 1   
     2     1     7 1   
     3     1    30 1   
     4     1    36 1   
     5     2    13 1   
     6     2    35 1   
     7     2    37 1   
     8     3    23 1   
     9     3    24 1   
    10     4     5 1   
    11     4    38 1   
    12     4    39 1   
    13     4    40 1   
    14     5    13 1   
    15     6     8 ar  
    16     6     9 ar  
    17     7    34 1   
    18     8    10 ar  
    19     8    41 1   
    20     9    11 ar  
    21     9    42 1   
    22    10    12 ar  
    23    10    14 1   
    24    11    12 ar  
    25    11    43 1   
    26    12    44 1   
    27    13    19 2   
    28    15    16 1   
    29    15    17 1   
    30    15    25 1   
    31    15    45 1   
    32    16    18 1   
    33    16    46 1   
    34    16    47 1   
    35    17    20 1   
    36    17    48 1   
    37    17    49 1   
    38    18    33 1   
    39    18    50 1   
    40    20    21 1   
    41    20    24 1   
    42    20    51 1   
    43    21    22 1   
    44    21    52 1   
    45    21    53 1   
    46    22    23 1   
    47    22    54 1   
    48    22    55 1   
    49    23    56 1   
    50    23    57 1   
    51    24    58 1   
    52    24    59 1   
    53    25    60 1   
    54    25    77 1   
    55    26    77 2   
    56    27    31 1   
    57    27    32 1   
    58    27    77 1   
    59    28    29 1   
    60    28    32 1   
    61    28    61 1   
    62    28    62 1   
    63    29    30 1   
    64    29    63 1   
    65    29    64 1   
    66    30    31 1   
    67    30    65 1   
    68    31    66 1   
    69    31    67 1   
    70    32    68 1   
    71    32    69 1   
    72    33    70 1   
    73    33    71 1   
    74    33    72 1   
    75    34    35 1   
    76    34    73 1   
    77    34    74 1   
    78    35    75 1   
    79    35    76 1   
@<TRIPOS>SUBSTRUCTURE
     1 RX6         1 TEMP              0 ****  ****    0 ROOT
