@<TRIPOS>MOLECULE
molecule
   45    47     1     0     0
SMALL
bcc


@<TRIPOS>ATOM
      1 O1           0.0000     0.0000     0.0000 oh         1 RX8      -0.604800
      2 C10          1.4290     0.0000     0.0000 c3         1 RX8       0.125800
      3 C11          1.9390     0.0000     1.4410 c3         1 RX8      -0.126100
      4 C12          1.9390    -1.2490    -0.7220 c3         1 RX8      -0.126100
      5 C9           1.9390     1.2490    -0.7220 c3         1 RX8       0.052300
      6 N3           1.4500     1.2480    -2.1040 na         1 RX8      -0.101300
      7 C5           0.2690     1.7640    -2.5410 cc         1 RX8       0.415800
      8 C6          -0.7590     2.4360    -1.6680 c3         1 RX8       0.137100
      9 O           -0.4880     3.8370    -1.6050 os         1 RX8      -0.429600
     10 C7          -1.4110     4.5720    -0.7970 c3         1 RX8       0.138400
     11 C8          -1.0250     6.0520    -0.8010 c3         1 RX8      -0.091100
     12 N2           0.1610     1.5900    -3.8270 nd         1 RX8      -0.555100
     13 C4           1.2630     0.9540    -4.2910 ca         1 RX8      -0.047900
     14 C            1.6830     0.5160    -5.5680 ca         1 RX8       0.769200
     15 N            0.8600     0.7360    -6.6590 nv         1 RX8      -1.076500
     16 C3           2.0990     0.7360    -3.1920 ca         1 RX8      -0.088200
     17 C2           3.3690     0.0600    -3.4230 ca         1 RX8      -0.130300
     18 C13          4.2660    -0.1990    -2.3830 ca         1 RX8      -0.128000
     19 C14          5.4440    -0.8350    -2.6490 ca         1 RX8      -0.134000
     20 C15          5.7620    -1.2290    -3.9440 ca         1 RX8      -0.125000
     21 C16          4.9070    -0.9910    -4.9790 ca         1 RX8      -0.161300
     22 C1           3.6870    -0.3400    -4.7430 ca         1 RX8       0.441600
     23 N1           2.8320    -0.0920    -5.7470 nb         1 RX8      -0.730000
     24 H1          -0.3140    -0.6130     0.6440 ho         1 RX8       0.410000
     25 H2           3.0140     0.1310     1.4440 hc         1 RX8       0.050200
     26 H3           1.4740     0.8110     1.9890 hc         1 RX8       0.050200
     27 H4           1.6890    -0.9430     1.9130 hc         1 RX8       0.050200
     28 H5           3.0190    -1.2930    -0.6500 hc         1 RX8       0.050200
     29 H6           1.6480    -1.2080    -1.7650 hc         1 RX8       0.050200
     30 H7           1.5100    -2.1320    -0.2630 hc         1 RX8       0.050200
     31 H8           3.0220     1.2490    -0.7220 h1         1 RX8       0.078700
     32 H9           1.5780     2.1340    -0.2120 h1         1 RX8       0.078700
     33 H10         -0.7180     2.0140    -0.6710 h1         1 RX8       0.056700
     34 H11         -1.7460     2.2780    -2.0860 h1         1 RX8       0.056700
     35 H12         -1.3820     4.1940     0.2180 h1         1 RX8       0.022200
     36 H13         -2.4110     4.4580    -1.1970 h1         1 RX8       0.022200
     37 H14         -1.7430     6.6150    -0.2180 hc         1 RX8       0.045033
     38 H15         -1.0200     6.4210    -1.8200 hc         1 RX8       0.045033
     39 H16         -0.0380     6.1690    -0.3700 hc         1 RX8       0.045033
     40 H17          0.9630     1.5700    -7.2040 hn         1 RX8       0.440300
     41 H18          0.1900     0.0430    -6.9280 hn         1 RX8       0.440300
     42 H19          4.0280     0.1040    -1.3700 ha         1 RX8       0.126000
     43 H20          6.1390    -1.0350    -1.8420 ha         1 RX8       0.127000
     44 H21          6.7020    -1.7320    -4.1330 ha         1 RX8       0.132000
     45 H22          5.1700    -1.3040    -5.9830 ha         1 RX8       0.150000
@<TRIPOS>BOND
     1    15    14 1
     2    14    23 ar
     3    14    13 ar
     4    23    22 ar
     5    13    12 1
     6    13    16 ar
     7    12     7 2
     8    22    21 ar
     9    22    17 ar
    10    21    20 ar
    11    10    11 1
    12    10     9 1
    13    16    17 ar
    14    16     6 1
    15     7     8 1
    16     7     6 1
    17    17    18 ar
    18     8     9 1
    19    20    19 ar
    20     6     5 1
    21    18    19 ar
    22     5     2 1
    23     1     2 1
    24     2     4 1
    25     2     3 1
    26     1    24 1
    27     3    25 1
    28     3    26 1
    29     3    27 1
    30     4    28 1
    31     4    29 1
    32     4    30 1
    33     5    31 1
    34     5    32 1
    35     8    33 1
    36     8    34 1
    37    10    35 1
    38    10    36 1
    39    11    37 1
    40    11    38 1
    41    11    39 1
    42    15    40 1
    43    15    41 1
    44    18    42 1
    45    19    43 1
    46    20    44 1
    47    21    45 1
@<TRIPOS>SUBSTRUCTURE
     1 RX8         1 TEMP              0 ****  ****    0 ROOT
