@<TRIPOS>MOLECULE
RX8
   45    47     1     0     0
SMALL
bcc


@<TRIPOS>ATOM
      1 O1           0.0000     0.0000     0.0000 oh         1 RX8      -0.590800
      2 C10          1.4290     0.0000     0.0000 c3         1 RX8       0.148800
      3 C11          1.9390     0.0000     1.4410 c3         1 RX8      -0.048100
      4 C12          1.9390    -1.2490    -0.7220 c3         1 RX8      -0.048100
      5 C9           1.9390     1.2490    -0.7220 c3         1 RX8      -0.064700
      6 N3           1.4500     1.2480    -2.1040 na         1 RX8       0.398700
      7 C5           0.2690     1.7640    -2.5410 cc         1 RX8       0.186800
      8 C6          -0.7590     2.4360    -1.6680 c3         1 RX8       0.211100
      9 O           -0.4880     3.8370    -1.6050 os         1 RX8      -0.416600
     10 C7          -1.4110     4.5720    -0.7970 c3         1 RX8       0.214400
     11 C8          -1.0250     6.0520    -0.8010 c3         1 RX8       0.000900
     12 N2           0.1610     1.5900    -3.8270 nd         1 RX8      -0.460100
     13 C4           1.2630     0.9540    -4.2910 ca         1 RX8      -0.074900
     14 C            1.6830     0.5160    -5.5680 ca         1 RX8       0.587200
     15 N            0.8600     0.7360    -6.6590 nv         1 RX8      -0.655500
     16 C3           2.0990     0.7360    -3.1920 ca         1 RX8      -0.272200
     17 C2           3.3690     0.0600    -3.4230 ca         1 RX8      -0.097300
     18 C13          4.2660    -0.1990    -2.3830 ca         1 RX8      -0.130000
     19 C14          5.4440    -0.8350    -2.6490 ca         1 RX8      -0.097000
     20 C15          5.7620    -1.2290    -3.9440 ca         1 RX8      -0.104000
     21 C16          4.9070    -0.9910    -4.9790 ca         1 RX8      -0.133300
     22 C1           3.6870    -0.3400    -4.7430 ca         1 RX8       0.388600
     23 N1           2.8320    -0.0920    -5.7470 nb         1 RX8      -0.611000
     24 H1          -0.3140    -0.6130     0.6440 ho         1 RX8       0.404000
     25 H2           3.0140     0.1310     1.4440 hc         1 RX8       0.021867
     26 H3           1.4740     0.8110     1.9890 hc         1 RX8       0.021867
     27 H4           1.6890    -0.9430     1.9130 hc         1 RX8       0.021867
     28 H5           3.0190    -1.2930    -0.6500 hc         1 RX8       0.021867
     29 H6           1.6480    -1.2080    -1.7650 hc         1 RX8       0.021867
     30 H7           1.5100    -2.1320    -0.2630 hc         1 RX8       0.021867
     31 H8           3.0220     1.2490    -0.7220 h1         1 RX8       0.056200
     32 H9           1.5780     2.1340    -0.2120 h1         1 RX8       0.056200
     33 H10         -0.7180     2.0140    -0.6710 h1         1 RX8       0.014200
     34 H11         -1.7460     2.2780    -2.0860 h1         1 RX8       0.014200
     35 H12         -1.3820     4.1940     0.2180 h1         1 RX8      -0.012800
     36 H13         -2.4110     4.4580    -1.1970 h1         1 RX8      -0.012800
     37 H14         -1.7430     6.6150    -0.2180 hc         1 RX8       0.008367
     38 H15         -1.0200     6.4210    -1.8200 hc         1 RX8       0.008367
     39 H16         -0.0380     6.1690    -0.3700 hc         1 RX8       0.008367
     40 H17          0.9630     1.5700    -7.2040 hn         1 RX8       0.278800
     41 H18          0.1900     0.0430    -6.9280 hn         1 RX8       0.278800
     42 H19          4.0280     0.1040    -1.3700 ha         1 RX8       0.113000
     43 H20          6.1390    -1.0350    -1.8420 ha         1 RX8       0.100000
     44 H21          6.7020    -1.7320    -4.1330 ha         1 RX8       0.103000
     45 H22          5.1700    -1.3040    -5.9830 ha         1 RX8       0.117000
@<TRIPOS>BOND
     1     1     2 1   
     2     1    24 1   
     3     2     3 1   
     4     2     4 1   
     5     2     5 1   
     6     3    25 1   
     7     3    26 1   
     8     3    27 1   
     9     4    28 1   
    10     4    29 1   
    11     4    30 1   
    12     5     6 1   
    13     5    31 1   
    14     5    32 1   
    15     6     7 1   
    16     6    16 1   
    17     7     8 1   
    18     7    12 2   
    19     8     9 1   
    20     8    33 1   
    21     8    34 1   
    22     9    10 1   
    23    10    11 1   
    24    10    35 1   
    25    10    36 1   
    26    11    37 1   
    27    11    38 1   
    28    11    39 1   
    29    12    13 1   
    30    13    14 ar  
    31    13    16 ar  
    32    14    15 1   
    33    14    23 ar  
    34    15    40 1   
    35    15    41 1   
    36    16    17 ar  
    37    17    18 ar  
    38    17    22 ar  
    39    18    19 ar  
    40    18    42 1   
    41    19    20 ar  
    42    19    43 1   
    43    20    21 ar  
    44    20    44 1   
    45    21    22 ar  
    46    21    45 1   
    47    22    23 ar  
@<TRIPOS>SUBSTRUCTURE
     1 RX8         1 TEMP              0 ****  ****    0 ROOT
