@<TRIPOS>MOLECULE
RXA
   18    19     1     0     0
SMALL
bcc


@<TRIPOS>ATOM
      1 OAA          0.0000     0.0000     0.0000 o          1 RXA      -0.585500
      2 CAI          1.2130     0.0000     0.0000 c          1 RXA       0.517500
      3 NAH          1.8820     0.0000     1.1650 ns         1 RXA      -0.144500
      4 CAK          1.9580    -0.0050    -1.2980 c          1 RXA       0.549700
      5 OAC          1.3690    -0.0100    -2.3590 o          1 RXA      -0.473100
      6 CAM          3.4340    -0.0050    -1.2470 ca         1 RXA      -0.166600
      7 CAL          4.0570     0.0010     0.0180 ca         1 RXA      -0.128600
      8 CAF          5.4450     0.0010     0.0970 ca         1 RXA      -0.038000
      9 CAJ          3.2230     0.0000     1.2350 c          1 RXA       0.632100
     10 OAB          3.7600     0.0010     2.3240 o          1 RXA      -0.633500
     11 CAG          4.2050    -0.0100    -2.4040 ca         1 RXA      -0.038000
     12 CAE          5.5850    -0.0090    -2.3050 ca         1 RXA      -0.086000
     13 CAD          6.1990    -0.0040    -1.0640 ca         1 RXA      -0.082000
     14 HNAH         1.3590    -0.0000     2.0170 hn         1 RXA       0.198500
     15 HAF          5.9340     0.0050     1.0640 ha         1 RXA       0.131000
     16 HAG          3.7280    -0.0140    -3.3770 ha         1 RXA       0.126000
     17 HAE          6.1900    -0.0130    -3.2040 ha         1 RXA       0.111000
     18 HAD          7.2800    -0.0030    -1.0010 ha         1 RXA       0.110000
@<TRIPOS>BOND
     1     1     2 2   
     2     2     3 1   
     3     2     4 1   
     4     3     9 1   
     5     3    14 1   
     6     4     5 2   
     7     4     6 1   
     8     6     7 ar  
     9     6    11 ar  
    10     7     8 ar  
    11     7     9 1   
    12     8    13 ar  
    13     8    15 1   
    14     9    10 2   
    15    11    12 ar  
    16    11    16 1   
    17    12    13 ar  
    18    12    17 1   
    19    13    18 1   
@<TRIPOS>SUBSTRUCTURE
     1 RXA         1 TEMP              0 ****  ****    0 ROOT
