@<TRIPOS>MOLECULE
RXB
   41    43     1     0     0
SMALL
bcc


@<TRIPOS>ATOM
      1 OAE          0.0000     0.0000     0.0000 o          1 RXB      -0.631500
      2 CAW          1.2150     0.0000     0.0000 c          1 RXB       0.631100
      3 NAP          1.8720     0.0000     1.1710 ns         1 RXB      -0.143500
      4 CAV          3.2130    -0.0010     1.2530 c          1 RXB       0.517500
      5 OAD          3.7510    -0.0010     2.3410 o          1 RXB      -0.586500
      6 CAY          1.9370    -0.0070    -1.2860 ca         1 RXB      -0.108600
      7 CAZ          3.3490    -0.0070    -1.2860 ca         1 RXB      -0.216600
      8 CAX          4.0470    -0.0020     0.0100 c          1 RXB       0.573700
      9 OAF          5.2590    -0.0030     0.0700 o          1 RXB      -0.511100
     10 CAN          1.2550    -0.0130    -2.4950 ca         1 RXB      -0.056000
     11 CAJ          1.9590    -0.0190    -3.6890 ca         1 RXB      -0.058000
     12 CAM          3.3400    -0.0200    -3.6960 ca         1 RXB      -0.101000
     13 CAU          4.0490    -0.0140    -2.4960 ca         1 RXB      -0.010400
     14 NAO          5.4390    -0.0130    -2.5030 ns         1 RXB      -0.034100
     15 CAS          6.1090    -0.6880    -3.4590 c          1 RXB       0.556100
     16 OAC          5.5000    -1.2250    -4.3600 o          1 RXB      -0.623100
     17 CBA          7.6120    -0.7740    -3.4070 c3         1 RXB       0.179400
     18 OAQ          8.0830    -1.6460    -4.4690 os         1 RXB      -0.380900
     19 CAR          8.2010    -2.9510    -4.1790 c          1 RXB       0.698100
     20 OAB          7.9210    -3.3530    -3.0750 o          1 RXB      -0.588000
     21 CAA          8.6850    -3.9160    -5.2320 c3         1 RXB      -0.033100
     22 CAT          8.2000     0.6000    -3.5860 ca         1 RXB      -0.132300
     23 CAL          8.6320     1.3170    -2.4860 ca         1 RXB      -0.078500
     24 CAI          9.1720     2.5790    -2.6500 ca         1 RXB      -0.101000
     25 CAG          9.2820     3.1240    -3.9160 ca         1 RXB      -0.087000
     26 CAH          8.8520     2.4070    -5.0170 ca         1 RXB      -0.101000
     27 CAK          8.3160     1.1440    -4.8520 ca         1 RXB      -0.078500
     28 HNAP         1.3400     0.0010     2.0190 hn         1 RXB       0.198500
     29 HAN          0.1710    -0.0120    -2.5050 ha         1 RXB       0.131000
     30 HAJ          1.4200    -0.0240    -4.6290 ha         1 RXB       0.112000
     31 HAM          3.8740    -0.0250    -4.6380 ha         1 RXB       0.154000
     32 HNAO         5.9420     0.5190    -1.8200 hn         1 RXB       0.206500
     33 HBA          7.9170    -1.1750    -2.4480 h1         1 RXB       0.062700
     34 HAA          8.4770    -4.9300    -4.9140 hc         1 RXB       0.029033
     35 HAAA         8.1740    -3.7180    -6.1660 hc         1 RXB       0.029033
     36 HAAB         9.7520    -3.7930    -5.3710 hc         1 RXB       0.029033
     37 HAL          8.5460     0.8900    -1.4940 ha         1 RXB       0.116500
     38 HAI          9.5090     3.1410    -1.7870 ha         1 RXB       0.107500
     39 HAG          9.7040     4.1130    -4.0440 ha         1 RXB       0.105000
     40 HAH          8.9400     2.8330    -6.0090 ha         1 RXB       0.107500
     41 HAK          7.9790     0.5820    -5.7150 ha         1 RXB       0.116500
@<TRIPOS>BOND
     1     1     2 2   
     2     2     3 1   
     3     2     6 1   
     4     3     4 1   
     5     3    28 1   
     6     4     5 2   
     7     4     8 1   
     8     6     7 ar  
     9     6    10 ar  
    10     7     8 1   
    11     7    13 ar  
    12     8     9 2   
    13    10    11 ar  
    14    10    29 1   
    15    11    12 ar  
    16    11    30 1   
    17    12    13 ar  
    18    12    31 1   
    19    13    14 1   
    20    14    15 1   
    21    14    32 1   
    22    15    16 2   
    23    15    17 1   
    24    17    18 1   
    25    17    22 1   
    26    17    33 1   
    27    18    19 1   
    28    19    20 2   
    29    19    21 1   
    30    21    34 1   
    31    21    35 1   
    32    21    36 1   
    33    22    23 ar  
    34    22    27 ar  
    35    23    24 ar  
    36    23    37 1   
    37    24    25 ar  
    38    24    38 1   
    39    25    26 ar  
    40    25    39 1   
    41    26    27 ar  
    42    26    40 1   
    43    27    41 1   
@<TRIPOS>SUBSTRUCTURE
     1 RXB         1 TEMP              0 ****  ****    0 ROOT
