@<TRIPOS>MOLECULE
RXC
   41    43     1     0     0
SMALL
bcc


@<TRIPOS>ATOM
      1 OAE          0.0000     0.0000     0.0000 o          1 RXC      -0.630500
      2 CAX          1.2150     0.0000     0.0000 c          1 RXC       0.631100
      3 NAP          1.8730     0.0000     1.1700 ns         1 RXC      -0.142500
      4 CAW          3.2140    -0.0010     1.2510 c          1 RXC       0.517500
      5 OAD          3.7530    -0.0000     2.3390 o          1 RXC      -0.586500
      6 CAZ          1.9370    -0.0060    -1.2870 ca         1 RXC      -0.109600
      7 CBA          3.3500    -0.0070    -1.2870 ca         1 RXC      -0.217600
      8 CAY          4.0470    -0.0010     0.0090 c          1 RXC       0.574700
      9 OAF          5.2590    -0.0010     0.0670 o          1 RXC      -0.512100
     10 CAM          1.2530    -0.0120    -2.4950 ca         1 RXC      -0.055000
     11 CAI          1.9590    -0.0180    -3.6900 ca         1 RXC      -0.057000
     12 CAL          3.3380    -0.0180    -3.6970 ca         1 RXC      -0.101000
     13 CAV          4.0490    -0.0120    -2.4980 ca         1 RXC      -0.011400
     14 NAO          5.4380    -0.0110    -2.5060 ns         1 RXC      -0.032100
     15 CAS          6.1070    -0.6850    -3.4620 c          1 RXC       0.554100
     16 OAC          5.4990    -1.2230    -4.3630 o          1 RXC      -0.620100
     17 CBB          7.6110    -0.7720    -3.4110 c3         1 RXC       0.178400
     18 OAQ          8.0820    -1.6420    -4.4740 os         1 RXC      -0.380900
     19 CAR          8.2000    -2.9470    -4.1840 c          1 RXC       0.698100
     20 OAB          7.9210    -3.3490    -3.0800 o          1 RXC      -0.587000
     21 CAA          8.6830    -3.9110    -5.2380 c3         1 RXC      -0.033100
     22 CAU          8.1990     0.6040    -3.5900 ca         1 RXC      -0.120300
     23 CAK          8.6310     1.3200    -2.4900 ca         1 RXC      -0.091000
     24 CAH          9.1700     2.5820    -2.6540 ca         1 RXC      -0.089000
     25 CAJ          9.2800     3.1280    -3.9180 ca         1 RXC      -0.086000
     26 CAT          8.8490     2.4110    -5.0210 ca         1 RXC      -0.039600
     27 ClAG         8.9850     3.0980    -6.6100 cl         1 RXC      -0.015400
     28 CAN          8.3130     1.1470    -4.8560 ca         1 RXC      -0.067000
     29 HNAP         1.3420     0.0010     2.0180 hn         1 RXC       0.199500
     30 HAM          0.1700    -0.0120    -2.5050 ha         1 RXC       0.132000
     31 HAI          1.4190    -0.0230    -4.6290 ha         1 RXC       0.112000
     32 HAL          3.8720    -0.0230    -4.6400 ha         1 RXC       0.154000
     33 HNAO         5.9420     0.5160    -1.8200 hn         1 RXC       0.205500
     34 HBB          7.9170    -1.1730    -2.4530 h1         1 RXC       0.063700
     35 HAA          8.4770    -4.9260    -4.9200 hc         1 RXC       0.030033
     36 HAAA         9.7500    -3.7870    -5.3790 hc         1 RXC       0.030033
     37 HAAB         8.1700    -3.7140    -6.1710 hc         1 RXC       0.030033
     38 HAK          8.5450     0.8920    -1.4980 ha         1 RXC       0.115000
     39 HAH          9.5080     3.1430    -1.7910 ha         1 RXC       0.112000
     40 HAJ          9.7020     4.1170    -4.0460 ha         1 RXC       0.117000
     41 HAN          7.9750     0.5850    -5.7190 ha         1 RXC       0.133000
@<TRIPOS>BOND
     1     1     2 2   
     2     2     3 1   
     3     2     6 1   
     4     3     4 1   
     5     3    29 1   
     6     4     5 2   
     7     4     8 1   
     8     6     7 ar  
     9     6    10 ar  
    10     7     8 1   
    11     7    13 ar  
    12     8     9 2   
    13    10    11 ar  
    14    10    30 1   
    15    11    12 ar  
    16    11    31 1   
    17    12    13 ar  
    18    12    32 1   
    19    13    14 1   
    20    14    15 1   
    21    14    33 1   
    22    15    16 2   
    23    15    17 1   
    24    17    18 1   
    25    17    22 1   
    26    17    34 1   
    27    18    19 1   
    28    19    20 2   
    29    19    21 1   
    30    21    35 1   
    31    21    36 1   
    32    21    37 1   
    33    22    23 ar  
    34    22    28 ar  
    35    23    24 ar  
    36    23    38 1   
    37    24    25 ar  
    38    24    39 1   
    39    25    26 ar  
    40    25    40 1   
    41    26    27 1   
    42    26    28 ar  
    43    28    41 1   
@<TRIPOS>SUBSTRUCTURE
     1 RXC         1 TEMP              0 ****  ****    0 ROOT
