@<TRIPOS>MOLECULE
RXD
   49    51     1     0     0
SMALL
bcc


@<TRIPOS>ATOM
      1 FAN          0.0000     0.0000     0.0000 f          1 RXD      -0.226300
      2 CAN          1.3990     0.0000     0.0000 c3         1 RXD       0.211900
      3 CAO          1.9080     0.0000     1.4430 c3         1 RXD       0.169400
      4 OAU          1.5310    -1.2210     2.0810 os         1 RXD      -0.299900
      5 CAZ          1.9080    -1.3830     3.3770 ca         1 RXD       0.170100
      6 CAI          2.6270    -0.3850     4.0200 ca         1 RXD      -0.225000
      7 CAG          3.0120    -0.5490     5.3370 ca         1 RXD      -0.036000
      8 CAH          2.6810    -1.7040     6.0190 ca         1 RXD      -0.145000
      9 CAL          1.5700    -2.5420     4.0580 ca         1 RXD      -0.173000
     10 CAX          1.9600    -2.7060     5.3800 ca         1 RXD      -0.051400
     11 NAR          1.6260    -3.8760     6.0690 ns         1 RXD      -0.029100
     12 CAV          1.3630    -3.8290     7.3900 c          1 RXD       0.558100
     13 OAA          1.3260    -2.7600     7.9620 o          1 RXD      -0.641100
     14 CAP          1.1150    -5.1030     8.1550 c3         1 RXD      -0.085400
     15 CAQ          0.8430    -4.7700     9.6240 c3         1 RXD      -0.081400
     16 CAW          0.5950    -6.0450    10.3900 c          1 RXD       0.559100
     17 OAB          0.6330    -7.1130     9.8170 o          1 RXD      -0.629100
     18 NAS          0.3330    -5.9960    11.7110 ns         1 RXD      -0.039100
     19 CAY          0.1990    -7.1790    12.4390 ca         1 RXD      -0.073400
     20 CAJ          0.6530    -7.2400    13.7510 ca         1 RXD      -0.122000
     21 CAK          0.5280    -8.4030    14.4860 ca         1 RXD      -0.017000
     22 CBD         -0.0590    -9.5270    13.9110 ca         1 RXD      -0.148600
     23 CBE         -0.5210    -9.4660    12.5780 ca         1 RXD      -0.147600
     24 CBC         -1.1400   -10.6760    11.9980 c          1 RXD       0.547700
     25 OAE         -1.5540   -10.6820    10.8580 o          1 RXD      -0.464100
     26 CAM         -0.3960    -8.2920    11.8490 ca         1 RXD      -0.036000
     27 CBB         -0.2070   -10.7800    14.6700 c          1 RXD       0.634100
     28 OAD          0.1910   -10.8310    15.8170 o          1 RXD      -0.638500
     29 NAT         -0.7720   -11.8680    14.1230 ns         1 RXD      -0.143500
     30 CBA         -1.2370   -11.8930    12.8640 c          1 RXD       0.517500
     31 OAC         -1.7370   -12.9080    12.4250 o          1 RXD      -0.587500
     32 HAN          1.7600    -0.8850    -0.5110 h1         1 RXD       0.018200
     33 HANA         1.7600     0.8850    -0.5110 h1         1 RXD       0.018200
     34 HAO          2.9880     0.0900     1.4450 h1         1 RXD       0.014200
     35 HAOA         1.4760     0.8360     1.9790 h1         1 RXD       0.014200
     36 HAI          2.8890     0.5220     3.4880 ha         1 RXD       0.119000
     37 HAG          3.5730     0.2310     5.8370 ha         1 RXD       0.102000
     38 HAH          2.9850    -1.8300     7.0510 ha         1 RXD       0.140000
     39 HAL          1.0080    -3.3210     3.5570 ha         1 RXD       0.121000
     40 HNAR         1.5630    -4.7460     5.5770 hn         1 RXD       0.171500
     41 HAP          0.2570    -5.6140     7.7360 hc         1 RXD       0.045200
     42 HAPA         1.9870    -5.7420     8.0850 hc         1 RXD       0.045200
     43 HAQ          1.7010    -4.2580    10.0430 hc         1 RXD       0.045700
     44 HAQA        -0.0280    -4.1310     9.6950 hc         1 RXD       0.045700
     45 HNAS         0.2040    -5.1130    12.1630 hn         1 RXD       0.176500
     46 HAJ          1.1080    -6.3660    14.2030 ha         1 RXD       0.113000
     47 HAK          0.8850    -8.4400    15.5080 ha         1 RXD       0.131000
     48 HAM         -0.8790    -8.2000    10.8830 ha         1 RXD       0.157000
     49 HNAT        -0.8500   -12.6970    14.6790 hn         1 RXD       0.197500
@<TRIPOS>BOND
     1     1     2 1   
     2     2     3 1   
     3     2    32 1   
     4     2    33 1   
     5     3     4 1   
     6     3    34 1   
     7     3    35 1   
     8     4     5 1   
     9     5     6 ar  
    10     5     9 ar  
    11     6     7 ar  
    12     6    36 1   
    13     7     8 ar  
    14     7    37 1   
    15     8    10 ar  
    16     8    38 1   
    17     9    10 ar  
    18     9    39 1   
    19    10    11 1   
    20    11    12 1   
    21    11    40 1   
    22    12    13 2   
    23    12    14 1   
    24    14    15 1   
    25    14    41 1   
    26    14    42 1   
    27    15    16 1   
    28    15    43 1   
    29    15    44 1   
    30    16    17 2   
    31    16    18 1   
    32    18    19 1   
    33    18    45 1   
    34    19    20 ar  
    35    19    26 ar  
    36    20    21 ar  
    37    20    46 1   
    38    21    22 ar  
    39    21    47 1   
    40    22    23 ar  
    41    22    27 1   
    42    23    24 1   
    43    23    26 ar  
    44    24    25 2   
    45    24    30 1   
    46    26    48 1   
    47    27    28 2   
    48    27    29 1   
    49    29    30 1   
    50    29    49 1   
    51    30    31 2   
@<TRIPOS>SUBSTRUCTURE
     1 RXD         1 TEMP              0 ****  ****    0 ROOT
