@<TRIPOS>MOLECULE
RXP
   93    97     1     0     0
SMALL
bcc


@<TRIPOS>ATOM
      1 N1           0.0000     0.0000     0.0000 nz         1 RXP       0.187600
      2 N2           1.3100    -0.6920    -2.3250 ns         1 RXP      -0.278900
      3 C1           2.1020    -0.0010    -1.3050 c3         1 RXP      -0.058300
      4 C2           2.3560     1.4410    -1.7470 c3         1 RXP       0.090800
      5 C3           3.1100     1.4410    -3.0520 cc         1 RXP      -0.214400
      6 C4           4.5660     1.4470    -3.2170 ca         1 RXP      -0.082800
      7 C5           2.5750     1.4410    -4.2830 cd         1 RXP      -0.232100
      8 N3           3.5690     1.4400    -5.2230 na         1 RXP       0.390600
      9 C6           4.7990     1.4410    -4.6050 ca         1 RXP      -0.226200
     10 C7           5.6440     1.4410    -2.3300 ca         1 RXP      -0.060000
     11 C8           6.1080     1.4410    -5.0750 ca         1 RXP      -0.085000
     12 C9           6.9210     1.4430    -2.8150 ca         1 RXP      -0.110000
     13 C10          7.1560     1.4430    -4.1820 ca         1 RXP      -0.080000
     14 C11          1.3480     0.0000     0.0000 c          1 RXP       0.311100
     15 O1           1.9540     0.0000     1.0510 o          1 RXP      -0.414100
     16 O2           2.2980    -2.6270    -1.8830 o          1 RXP      -0.610100
     17 C12          1.4520    -2.0200    -2.5030 c          1 RXP       0.567100
     18 C13          0.2570    -4.1500    -2.9330 c3         1 RXP      -0.083400
     19 C14         -1.6570    -5.3160     0.1710 ca         1 RXP      -0.067300
     20 C15         -3.0310    -5.1640     0.1710 ca         1 RXP      -0.110500
     21 C16         -3.7150    -5.0600     1.3680 ca         1 RXP      -0.114000
     22 C17         -3.0260    -5.1080     2.5640 ca         1 RXP      -0.119000
     23 C18         -1.6510    -5.2600     2.5650 ca         1 RXP      -0.114000
     24 C19         -0.9680    -5.3690     1.3680 ca         1 RXP      -0.110500
     25 C20          0.5570    -2.7500    -3.4720 c3         1 RXP      -0.043700
     26 C38         -0.5000    -4.0350    -1.6090 c3         1 RXP      -0.020400
     27 C39         -0.9110    -5.4290    -1.1330 c3         1 RXP       0.028900
     28 C21          1.2600    -2.8650    -4.8260 c3         1 RXP      -0.054600
     29 P            0.1800    -3.7480    -5.9980 p5         1 RXP       0.375400
     30 O1P         -1.1460    -3.0930    -6.0380 o          1 RXP      -0.615000
     31 O2P          0.0080    -5.2770    -5.5220 o          1 RXP      -0.615000
     32 N4           0.0040    -4.3160    -8.6240 ns         1 RXP      -0.090900
     33 C22          0.9250    -3.7100    -7.6600 c3         1 RXP       0.012500
     34 C23          2.2390    -4.4960    -7.6480 c3         1 RXP       0.034900
     35 C24          2.9220    -4.3540    -8.9840 ca         1 RXP      -0.077300
     36 C25          3.8810    -3.3770    -9.1690 ca         1 RXP      -0.102500
     37 C26          2.5920    -5.2050   -10.0220 ca         1 RXP      -0.102500
     38 C27          4.5080    -3.2470   -10.3940 ca         1 RXP      -0.101500
     39 C28          3.2150    -5.0710   -11.2490 ca         1 RXP      -0.101500
     40 C29          4.1750    -4.0940   -11.4340 ca         1 RXP      -0.117000
     41 C30         -0.9040    -3.5500    -9.2610 c          1 RXP       0.676100
     42 O5          -0.9580    -2.3580    -9.0350 o          1 RXP      -0.671000
     43 O6          -1.7500    -4.1070   -10.1470 os         1 RXP      -0.436900
     44 C31         -2.7290    -3.2820   -10.8320 c3         1 RXP       0.307700
     45 C32         -3.5480    -4.1400   -11.7620 ca         1 RXP      -0.094300
     46 C33         -4.7100    -4.7360   -11.3080 ca         1 RXP      -0.075500
     47 C34         -5.4610    -5.5240   -12.1600 ca         1 RXP      -0.118000
     48 C35         -5.0500    -5.7170   -13.4660 ca         1 RXP      -0.100000
     49 C36         -3.8880    -5.1200   -13.9200 ca         1 RXP      -0.118000
     50 C37         -3.1390    -4.3290   -13.0690 ca         1 RXP      -0.075500
     51 HN11        -0.3340     0.4680     0.8190 hn         1 RXP       0.247133
     52 HN22        -0.3340    -0.9440    -0.0050 hn         1 RXP       0.247133
     53 HN2          0.6570    -0.1790    -2.8850 hn         1 RXP       0.196500
     54 H1           3.0480    -0.5120    -1.1750 h1         1 RXP       0.128700
     55 H21          2.9410     1.9520    -0.9920 hc         1 RXP       0.015200
     56 H22A         1.4090     1.9510    -1.8770 hc         1 RXP       0.015200
     57 H5           1.5140     1.4440    -4.4990 h4         1 RXP       0.140000
     58 HN3          3.4240     1.4400    -6.2140 hn         1 RXP       0.126700
     59 H7           5.4680     1.4420    -1.2610 ha         1 RXP       0.096000
     60 H8           6.3030     1.4410    -6.1410 ha         1 RXP       0.106000
     61 H9           7.7570     1.4440    -2.1260 ha         1 RXP       0.105000
     62 H10          8.1750     1.4450    -4.5510 ha         1 RXP       0.106000
     63 H131         1.1870    -4.6820    -2.7730 hc         1 RXP       0.090700
     64 H132        -0.3490    -4.6900    -3.6500 hc         1 RXP       0.090700
     65 H15         -3.5700    -5.1090    -0.7670 ha         1 RXP       0.115500
     66 H16         -4.7900    -4.9280     1.3670 ha         1 RXP       0.101000
     67 H17         -3.5610    -5.0160     3.5020 ha         1 RXP       0.100000
     68 H18         -1.1090    -5.2780     3.5020 ha         1 RXP       0.101000
     69 H19          0.0410    -5.6910     1.5930 ha         1 RXP       0.115500
     70 H20         -0.3700    -2.2020    -3.5910 hc         1 RXP       0.034700
     71 H381        -1.3850    -3.4260    -1.7500 hc         1 RXP      -0.017300
     72 H382         0.1400    -3.5740    -0.8660 hc         1 RXP      -0.017300
     73 H391        -1.5510    -5.8900    -1.8760 hc         1 RXP       0.036700
     74 H392        -0.0260    -6.0380    -0.9920 hc         1 RXP       0.036700
     75 H211         2.1870    -3.4120    -4.7070 hc         1 RXP       0.022200
     76 H212         1.4720    -1.8740    -5.2080 hc         1 RXP       0.022200
     77 HN4          0.0170    -5.3050    -8.7750 hn         1 RXP       0.169500
     78 H22          1.1210    -2.6830    -7.9450 h1         1 RXP       0.054700
     79 H231         2.0320    -5.5420    -7.4570 hc         1 RXP       0.030200
     80 H232         2.8850    -4.1080    -6.8690 hc         1 RXP       0.030200
     81 H25          4.1420    -2.7130    -8.3540 ha         1 RXP       0.103500
     82 H26          1.8400    -5.9710    -9.8770 ha         1 RXP       0.103500
     83 H27          5.2600    -2.4800   -10.5380 ha         1 RXP       0.095500
     84 H28          2.9560    -5.7370   -12.0630 ha         1 RXP       0.095500
     85 H29          4.6650    -3.9900   -12.3950 ha         1 RXP       0.096000
     86 H311        -2.2190    -2.5160   -11.4040 h1         1 RXP       0.008200
     87 H312        -3.3810    -2.8150   -10.1040 h1         1 RXP       0.008200
     88 H33         -5.0220    -4.6020   -10.2790 ha         1 RXP       0.109000
     89 H34         -6.3670    -5.9980   -11.8020 ha         1 RXP       0.099500
     90 H35         -5.6460    -6.3220   -14.1380 ha         1 RXP       0.097000
     91 H36         -3.5600    -5.2800   -14.9400 ha         1 RXP       0.099500
     92 H37         -2.3770    -3.7990   -13.6260 ha         1 RXP       0.109000
     93 H13         -0.3340     0.4810    -0.8120 hn         1 RXP       0.247133
@<TRIPOS>BOND
     1     1    14 1   
     2     1    51 1   
     3     1    52 1   
     4     1    93 1   
     5     2     3 1   
     6     2    17 1   
     7     2    53 1   
     8     3     4 1   
     9     3    14 1   
    10     3    54 1   
    11     4     5 1   
    12     4    55 1   
    13     4    56 1   
    14     5     6 1   
    15     5     7 2   
    16     6     9 ar  
    17     6    10 ar  
    18     7     8 1   
    19     7    57 1   
    20     8     9 1   
    21     8    58 1   
    22     9    11 ar  
    23    10    12 ar  
    24    10    59 1   
    25    11    13 ar  
    26    11    60 1   
    27    12    13 ar  
    28    12    61 1   
    29    13    62 1   
    30    14    15 2   
    31    16    17 2   
    32    17    25 1   
    33    18    25 1   
    34    18    26 1   
    35    18    63 1   
    36    18    64 1   
    37    19    20 ar  
    38    19    24 ar  
    39    19    27 1   
    40    20    21 ar  
    41    20    65 1   
    42    21    22 ar  
    43    21    66 1   
    44    22    23 ar  
    45    22    67 1   
    46    23    24 ar  
    47    23    68 1   
    48    24    69 1   
    49    25    28 1   
    50    25    70 1   
    51    26    27 1   
    52    26    71 1   
    53    26    72 1   
    54    27    73 1   
    55    27    74 1   
    56    28    29 1   
    57    28    75 1   
    58    28    76 1   
    59    29    30 1   
    60    29    31 1   
    61    29    33 1   
    62    32    33 1   
    63    32    41 1   
    64    32    77 1   
    65    33    34 1   
    66    33    78 1   
    67    34    35 1   
    68    34    79 1   
    69    34    80 1   
    70    35    36 ar  
    71    35    37 ar  
    72    36    38 ar  
    73    36    81 1   
    74    37    39 ar  
    75    37    82 1   
    76    38    40 ar  
    77    38    83 1   
    78    39    40 ar  
    79    39    84 1   
    80    40    85 1   
    81    41    42 2   
    82    41    43 1   
    83    43    44 1   
    84    44    45 1   
    85    44    86 1   
    86    44    87 1   
    87    45    46 ar  
    88    45    50 ar  
    89    46    47 ar  
    90    46    88 1   
    91    47    48 ar  
    92    47    89 1   
    93    48    49 ar  
    94    48    90 1   
    95    49    50 ar  
    96    49    91 1   
    97    50    92 1   
@<TRIPOS>SUBSTRUCTURE
     1 RXP         1 TEMP              0 ****  ****    0 ROOT
