@<TRIPOS>MOLECULE
RXT
   41    44     1     0     0
SMALL
bcc


@<TRIPOS>ATOM
      1 CAK          0.0000     0.0000     0.0000 c3         1 RXT      -0.022400
      2 CAH          1.5430     0.0000     0.0000 c3         1 RXT      -0.023400
      3 CAI          1.9830     0.0000     1.4740 c3         1 RXT      -0.023400
      4 CAL          0.6930     0.0010     2.3190 c3         1 RXT      -0.022400
      5 CAU         -0.3820    -0.6020     1.3750 c3         1 RXT      -0.074700
      6 CAV         -1.7840    -0.1560     1.7940 c3         1 RXT      -0.035000
      7 CAJ         -2.8180    -0.7650     0.8450 c3         1 RXT       0.093700
      8 CAB         -4.1550    -0.2420     1.1730 c1         1 RXT       0.167700
      9 NAA         -5.1900     0.1610     1.4080 n1         1 RXT      -0.351800
     10 NAW         -2.0510    -0.6070     3.1610 na         1 RXT       0.493400
     11 CAG         -2.5200    -1.8180     3.5160 cc         1 RXT      -0.212300
     12 NAO         -1.8570     0.1470     4.3250 nc         1 RXT      -0.650800
     13 CAF         -2.1970    -0.5820     5.3550 cd         1 RXT       0.418200
     14 CAQ         -2.6290    -1.8370     4.8790 cd         1 RXT      -0.383800
     15 CAR         -3.1040    -2.9700     5.7030 ca         1 RXT       0.589800
     16 NAM         -4.0690    -3.7780     5.2650 nb         1 RXT      -0.668000
     17 CAE         -4.4940    -4.7900     5.9970 ca         1 RXT       0.644900
     18 NAP         -4.0040    -5.0640     7.1870 nb         1 RXT      -0.641000
     19 CAT         -3.0370    -4.3160     7.7140 ca         1 RXT       0.257800
     20 CAS         -2.5450    -3.2270     6.9660 ca         1 RXT      -0.345400
     21 CAD         -1.5040    -2.6100     7.7830 cc         1 RXT      -0.132200
     22 CAC         -1.4230    -3.3250     8.9180 cd         1 RXT      -0.275100
     23 NAN         -2.3410    -4.3430     8.8910 na         1 RXT       0.271900
     24 H1          -0.3770    -0.6220    -0.8020 hc         1 RXT       0.023700
     25 H2          -0.3770     1.0120    -0.0870 hc         1 RXT       0.023700
     26 H3           1.9130     0.8890    -0.4960 hc         1 RXT       0.015950
     27 H4           1.9130    -0.8890    -0.4960 hc         1 RXT       0.015950
     28 H5           2.5640    -0.8890     1.6860 hc         1 RXT       0.015950
     29 H6           2.5640     0.8890     1.6860 hc         1 RXT       0.015950
     30 H7           0.8160    -0.6230     3.1970 hc         1 RXT       0.023700
     31 H8           0.4250     1.0120     2.5990 hc         1 RXT       0.023700
     32 H9          -0.3070    -1.6830     1.3520 hc         1 RXT       0.040700
     33 H10         -1.8470     0.9240     1.7510 h1         1 RXT       0.069700
     34 H11         -2.5690    -0.5040    -0.1770 hc         1 RXT       0.045200
     35 H12         -2.8170    -1.8430     0.9520 hc         1 RXT       0.045200
     36 H18         -2.7720    -2.6280     2.8430 h4         1 RXT       0.157000
     37 H19         -2.1580    -0.2740     6.3930 h4         1 RXT       0.012100
     38 H20         -5.2810    -5.4210     5.6030 h5         1 RXT      -0.003900
     39 H21         -0.9040    -1.7470     7.5190 ha         1 RXT       0.135000
     40 H22         -0.7360    -3.1280     9.7310 h4         1 RXT       0.144000
     41 H23         -2.4760    -5.0130     9.6220 hn         1 RXT       0.119700
@<TRIPOS>BOND
     1     1     2 1   
     2     1     5 1   
     3     1    24 1   
     4     1    25 1   
     5     2     3 1   
     6     2    26 1   
     7     2    27 1   
     8     3     4 1   
     9     3    28 1   
    10     3    29 1   
    11     4     5 1   
    12     4    30 1   
    13     4    31 1   
    14     5     6 1   
    15     5    32 1   
    16     6     7 1   
    17     6    10 1   
    18     6    33 1   
    19     7     8 1   
    20     7    34 1   
    21     7    35 1   
    22     8     9 3   
    23    10    11 1   
    24    10    12 1   
    25    11    14 2   
    26    11    36 1   
    27    12    13 2   
    28    13    14 1   
    29    13    37 1   
    30    14    15 1   
    31    15    16 ar  
    32    15    20 ar  
    33    16    17 ar  
    34    17    18 ar  
    35    17    38 1   
    36    18    19 ar  
    37    19    20 ar  
    38    19    23 1   
    39    20    21 1   
    40    21    22 2   
    41    21    39 1   
    42    22    23 1   
    43    22    40 1   
    44    23    41 1   
@<TRIPOS>SUBSTRUCTURE
     1 RXT         1 TEMP              0 ****  ****    0 ROOT
