@<TRIPOS>MOLECULE
molecule
   28    28     1     0     0
SMALL
bcc


@<TRIPOS>ATOM
      1 S            0.0000     0.0000     0.0000 sy         1 RYJ       1.228200
      2 N'           6.6840     0.0070     1.1680 ns         1 RYJ      -0.573900
      3 O'           6.6180     0.0120    -1.0530 o          1 RYJ      -0.561100
      4 C1           4.5320     0.0000     0.0000 ca         1 RYJ      -0.040600
      5 C2           2.4510     0.0010     1.2000 ca         1 RYJ      -0.033000
      6 C3           3.8310     0.0000     1.2070 ca         1 RYJ      -0.094500
      7 C4           1.7620     0.0010     0.0000 ca         1 RYJ      -0.330500
      8 C5           3.8300     0.0010    -1.2060 ca         1 RYJ      -0.094500
      9 C6           2.4510    -0.0000    -1.2000 ca         1 RYJ      -0.033000
     10 F2'1         8.1870     1.1510     3.2720 f          1 RYJ      -0.215967
     11 F2'2        10.0580     0.0180     2.6100 f          1 RYJ      -0.215967
     12 F2'3         8.1970    -1.1340     3.2660 f          1 RYJ      -0.215967
     13 C1'          8.1490     0.0130     1.1670 c3         1 RYJ       0.064000
     14 O1S         -0.4010    -0.5440    -1.2500 o          1 RYJ      -0.512800
     15 C2'          8.6590     0.0120     2.6100 c3         1 RYJ       0.605900
     16 O2S         -0.4010    -0.5440     1.2500 o          1 RYJ      -0.512800
     17 N3S         -0.4900     1.5820     0.0000 nz         1 RYJ      -0.807500
     18 HN'          6.1840    -0.0120     2.0340 hn         1 RYJ       0.327500
     19 H2           1.9060     0.0010     2.1360 ha         1 RYJ       0.161500
     20 H3           4.3690    -0.0000     2.1470 ha         1 RYJ       0.176500
     21 H5           4.3680     0.0000    -2.1470 ha         1 RYJ       0.176500
     22 H6           1.9060     0.0000    -2.1360 ha         1 RYJ       0.161500
     23 H1'          8.5130    -0.8690     0.6550 h1         1 RYJ       0.099700
     24 H1'A         8.5070     0.9000     0.6580 h1         1 RYJ       0.099700
     25 HN3S        -0.1380     2.0410    -0.8170 hn         1 RYJ       0.493467
     26 HN3A        -0.1380     2.0410     0.8180 hn         1 RYJ       0.493467
     27 H3S3        -1.4900     1.6220     0.0000 hn         1 RYJ       0.493467
     28 C7           6.0100     0.0060     0.0000 c          1 RYJ       0.660700
@<TRIPOS>BOND
     1     7     1 1
     2    16     1 2
     3    17     1 1
     4     1    14 2
     5    13     2 1
     6     2    28 1
     7     2    18 1
     8     3    28 2
     9    28     4 1
    10     4     8 ar
    11     4     6 ar
    12     6     5 ar
    13     5     7 ar
    14     5    19 1
    15     6    20 1
    16     9     7 ar
    17     8     9 ar
    18     8    21 1
    19     9    22 1
    20    15    10 1
    21    15    11 1
    22    12    15 1
    23    13    15 1
    24    13    23 1
    25    13    24 1
    26    17    25 1
    27    17    26 1
    28    27    17 1
@<TRIPOS>SUBSTRUCTURE
     1 RYJ         1 TEMP              0 ****  ****    0 ROOT
