@<TRIPOS>MOLECULE
RYN
   32    32     1     0     0
SMALL
bcc


@<TRIPOS>ATOM
      1 N1           0.0000     0.0000     0.0000 nb         1 RYN      -0.822000
      2 C2           1.3300     0.0000     0.0000 ca         1 RYN       0.854300
      3 N3           1.9960     0.0000     1.1520 nb         1 RYN      -0.767000
      4 C4           1.3290     0.0000     2.3030 ca         1 RYN       0.789900
      5 N5          -0.0000     0.0000     2.3020 nb         1 RYN      -0.824000
      6 C6          -0.6640    -0.0000     1.1510 ca         1 RYN       0.796900
      7 N7           2.0200     0.0000     3.4990 nu         1 RYN      -0.461900
      8 C8           3.4840    -0.0010     3.4990 c3         1 RYN       0.126500
      9 C9           3.9940     0.6090     4.8060 c3         1 RYN      -0.012100
     10 C10          3.9940    -1.4380     3.3730 c3         1 RYN      -0.012100
     11 N11         -2.0450     0.0010     1.1510 nu         1 RYN      -0.474900
     12 C12         -2.7770    -0.0000    -0.1180 c3         1 RYN       0.163800
     13 C13         -4.2810    -0.0000     0.1610 c3         1 RYN      -0.007100
     14 S21          2.2110    -0.0000    -1.5260 ss         1 RYN      -0.382400
     15 C22          0.8250    -0.0010    -2.6900 c3         1 RYN       0.115000
     16 HN7          1.5190     0.0050     4.3650 hn         1 RYN       0.299800
     17 H9           3.6100     1.6160     4.9090 hc         1 RYN       0.010700
     18 H9A          5.0770     0.6350     4.7940 hc         1 RYN       0.010700
     19 H10          3.8060    -1.8010     2.3700 hc         1 RYN       0.010700
     20 H10A         3.4790    -2.0680     4.0880 hc         1 RYN       0.010700
     21 H10B         5.0590    -1.4620     3.5720 hc         1 RYN       0.010700
     22 HN11        -2.5460     0.0010     2.0180 hn         1 RYN       0.302800
     23 H12         -2.5150     0.8840    -0.6860 h1         1 RYN       0.022700
     24 H12A        -2.5150    -0.8850    -0.6850 h1         1 RYN       0.022700
     25 H13         -4.5420    -0.8820     0.7350 hc         1 RYN       0.009033
     26 H13A        -4.5440     0.8870     0.7240 hc         1 RYN       0.009033
     27 H13B        -4.8230    -0.0060    -0.7770 hc         1 RYN       0.009033
     28 H22          0.2200    -0.8850    -2.5290 h1         1 RYN       0.038700
     29 H22A         0.2210     0.8840    -2.5330 h1         1 RYN       0.038700
     30 H22B         1.2060    -0.0040    -3.7040 h1         1 RYN       0.038700
     31 H16          3.8460     0.5850     2.6620 h1         1 RYN       0.059700
     32 H17          3.6570     0.0070     5.6410 hc         1 RYN       0.010700
@<TRIPOS>BOND
     1     1     2 ar  
     2     1     6 ar  
     3     2     3 ar  
     4     2    14 1   
     5     3     4 ar  
     6     4     5 ar  
     7     4     7 1   
     8     5     6 ar  
     9     6    11 1   
    10     7     8 1   
    11     7    16 1   
    12     8     9 1   
    13     8    10 1   
    14     8    31 1   
    15     9    17 1   
    16     9    18 1   
    17     9    32 1   
    18    10    19 1   
    19    10    20 1   
    20    10    21 1   
    21    11    12 1   
    22    11    22 1   
    23    12    13 1   
    24    12    23 1   
    25    12    24 1   
    26    13    25 1   
    27    13    26 1   
    28    13    27 1   
    29    14    15 1   
    30    15    28 1   
    31    15    29 1   
    32    15    30 1   
@<TRIPOS>SUBSTRUCTURE
     1 RYN         1 TEMP              0 ****  ****    0 ROOT
