@<TRIPOS>MOLECULE
molecule
   32    32     1     0     0
SMALL
bcc


@<TRIPOS>ATOM
      1 N1           0.0000     0.0000     0.0000 nb         1 RYN      -0.903000
      2 C2           1.3300     0.0000     0.0000 ca         1 RYN       0.881300
      3 N3           1.9960     0.0000     1.1520 nb         1 RYN      -0.866000
      4 C4           1.3290     0.0000     2.3030 ca         1 RYN       1.003900
      5 N5          -0.0000     0.0000     2.3020 nb         1 RYN      -0.916000
      6 C6          -0.6640    -0.0000     1.1510 ca         1 RYN       1.004900
      7 N7           2.0200     0.0000     3.4990 nu         1 RYN      -0.885900
      8 C8           3.4840    -0.0010     3.4990 c3         1 RYN       0.243500
      9 C9           3.9940     0.6090     4.8060 c3         1 RYN      -0.109600
     10 C10          3.9940    -1.4380     3.3730 c3         1 RYN      -0.109600
     11 N11         -2.0450     0.0010     1.1510 nu         1 RYN      -0.893900
     12 C12         -2.7770    -0.0000    -0.1180 c3         1 RYN       0.243800
     13 C13         -4.2810    -0.0000     0.1610 c3         1 RYN      -0.114100
     14 S21          2.2110    -0.0000    -1.5260 ss         1 RYN      -0.254400
     15 C22          0.8250    -0.0010    -2.6900 c3         1 RYN      -0.021000
     16 HN7          1.5190     0.0050     4.3650 hn         1 RYN       0.455800
     17 H9           3.6100     1.6160     4.9090 hc         1 RYN       0.042867
     18 H9A          5.0770     0.6350     4.7940 hc         1 RYN       0.042867
     19 H10          3.8060    -1.8010     2.3700 hc         1 RYN       0.042867
     20 H10A         3.4790    -2.0680     4.0880 hc         1 RYN       0.042867
     21 H10B         5.0590    -1.4620     3.5720 hc         1 RYN       0.042867
     22 HN11        -2.5460     0.0010     2.0180 hn         1 RYN       0.457800
     23 H12         -2.5150     0.8840    -0.6860 h1         1 RYN       0.049700
     24 H12A        -2.5150    -0.8850    -0.6850 h1         1 RYN       0.049700
     25 H13         -4.5420    -0.8820     0.7350 hc         1 RYN       0.044033
     26 H13A        -4.5440     0.8870     0.7240 hc         1 RYN       0.044033
     27 H13B        -4.8230    -0.0060    -0.7770 hc         1 RYN       0.044033
     28 H22          0.2200    -0.8850    -2.5290 h1         1 RYN       0.070367
     29 H22A         0.2210     0.8840    -2.5330 h1         1 RYN       0.070367
     30 H22B         1.2060    -0.0040    -3.7040 h1         1 RYN       0.070367
     31 H16          3.8460     0.5850     2.6620 h1         1 RYN       0.082700
     32 H17          3.6570     0.0070     5.6410 hc         1 RYN       0.042867
@<TRIPOS>BOND
     1     1     6 ar
     2     2     1 ar
     3     2     3 ar
     4     3     4 ar
     5     4     7 1
     6     4     5 ar
     7     6     5 ar
     8     6    11 1
     9     7     8 1
    10     7    16 1
    11     8    10 1
    12     9     8 1
    13     9    17 1
    14     9    18 1
    15    10    19 1
    16    10    20 1
    17    10    21 1
    18    11    12 1
    19    11    22 1
    20    12    23 1
    21    12    24 1
    22    13    12 1
    23    13    25 1
    24    13    26 1
    25    13    27 1
    26    14     2 1
    27    15    14 1
    28    15    28 1
    29    15    29 1
    30    15    30 1
    31     8    31 1
    32     9    32 1
@<TRIPOS>SUBSTRUCTURE
     1 RYN         1 TEMP              0 ****  ****    0 ROOT
