@<TRIPOS>MOLECULE
RYU
   54    58     1     0     0
SMALL
bcc


@<TRIPOS>ATOM
      1 C1           0.0000     0.0000     0.0000 ca         1 RYU      -0.020000
      2 C2           1.3840     0.0000     0.0000 ca         1 RYU      -0.131000
      3 C3           2.0730     0.0000     1.1980 ca         1 RYU      -0.056000
      4 C4           1.3880     0.0020     2.3960 ca         1 RYU      -0.120000
      5 C5          -0.0070     0.0020     2.4050 ca         1 RYU      -0.020400
      6 C6          -0.6880     0.0020     1.1900 ca         1 RYU      -0.212300
      7 C7          -2.1610     0.0010     1.5280 c3         1 RYU       0.274300
      8 C71         -2.8350    -1.2570     0.9760 c3         1 RYU      -0.014100
      9 O71         -2.7940     1.1720     1.0100 oh         1 RYU      -0.571800
     10 C8          -2.1980     0.0020     3.0400 c2         1 RYU       0.048800
     11 N9          -0.9080     0.0030     3.4670 nu         1 RYU      -0.110400
     12 C10         -3.3140     0.0030     3.8240 cc         1 RYU      -0.268400
     13 C11         -3.3780    -0.1280     5.2850 c          1 RYU       0.636700
     14 O11         -2.4260    -0.2600     6.0340 o          1 RYU      -0.700500
     15 N12         -4.6690    -0.0750     5.6510 ns         1 RYU       0.015900
     16 C13         -5.5030     0.0820     4.5500 ca         1 RYU      -0.076400
     17 C14         -4.7230     0.1430     3.3890 ca         1 RYU      -0.087800
     18 C15         -5.3250     0.2930     2.1450 ca         1 RYU       0.033000
     19 C16         -6.6980     0.3930     2.0580 ca         1 RYU      -0.184500
     20 C17         -7.4730     0.3390     3.2050 ca         1 RYU       0.018000
     21 C18         -6.8850     0.1840     4.4430 ca         1 RYU      -0.149000
     22 S19         -7.4680     0.5900     0.4850 sy         1 RYU       1.059200
     23 O19         -6.5390     0.0850    -0.4640 o          1 RYU      -0.590300
     24 O1          -8.8040     0.1360     0.6500 o          1 RYU      -0.590300
     25 N20         -7.5790     2.2140     0.1880 n3         1 RYU      -0.532500
     26 C21         -6.4950     2.9250    -0.5040 c3         1 RYU       0.236300
     27 C22         -7.0830     3.6750    -1.7020 c3         1 RYU      -0.060900
     28 C23         -8.2220     4.5790    -1.2240 c3         1 RYU       0.193100
     29 O23         -8.7530     5.3050    -2.3350 oh         1 RYU      -0.584800
     30 C24         -9.3270     3.7240    -0.5990 c3         1 RYU      -0.060900
     31 C25         -8.7650     2.9720     0.6050 c3         1 RYU       0.236300
     32 H1          -0.5410     0.0000    -0.9380 ha         1 RYU       0.111000
     33 H2           1.9270    -0.0010    -0.9380 ha         1 RYU       0.111000
     34 H3           3.1560    -0.0000     1.1970 ha         1 RYU       0.106000
     35 H4           1.9340     0.0020     3.3310 ha         1 RYU       0.111000
     36 H711        -3.5930    -1.5950     1.6730 hc         1 RYU       0.028700
     37 H712        -2.0940    -2.0360     0.8430 hc         1 RYU       0.028700
     38 H713        -3.2970    -1.0310     0.0230 hc         1 RYU       0.028700
     39 H71         -2.1560     1.8600     0.9200 ho         1 RYU       0.401000
     40 H9          -0.6380     0.0040     4.4300 hn         1 RYU       0.314800
     41 H12         -4.9900    -0.1410     6.5970 hn         1 RYU       0.175500
     42 H15         -4.7180     0.3350     1.2490 ha         1 RYU       0.152000
     43 H17         -8.5500     0.4190     3.1280 ha         1 RYU       0.121000
     44 H18         -7.5010     0.1430     5.3330 ha         1 RYU       0.108000
     45 H211        -6.0340     3.6320     0.1750 h1         1 RYU       0.023200
     46 H212        -5.7570     2.2110    -0.8500 h1         1 RYU       0.023200
     47 H221        -6.3120     4.2800    -2.1620 hc         1 RYU       0.029950
     48 H222        -7.4670     2.9610    -2.4210 hc         1 RYU       0.029950
     49 H23         -7.8430     5.2720    -0.4830 h1         1 RYU      -0.005300
     50 HA          -8.6380     6.2300    -2.1890 ho         1 RYU       0.386000
     51 H241       -10.1400     4.3640    -0.2780 hc         1 RYU       0.029950
     52 H242        -9.6890     3.0110    -1.3310 hc         1 RYU       0.029950
     53 H251        -8.4880     3.6810     1.3760 h1         1 RYU       0.023200
     54 H252        -9.5150     2.2890     0.9870 h1         1 RYU       0.023200
@<TRIPOS>BOND
     1     1     2 ar  
     2     1     6 ar  
     3     1    32 1   
     4     2     3 ar  
     5     2    33 1   
     6     3     4 ar  
     7     3    34 1   
     8     4     5 ar  
     9     4    35 1   
    10     5     6 ar  
    11     5    11 1   
    12     6     7 1   
    13     7     8 1   
    14     7     9 1   
    15     7    10 1   
    16     8    36 1   
    17     8    37 1   
    18     8    38 1   
    19     9    39 1   
    20    10    11 1   
    21    10    12 2   
    22    11    40 1   
    23    12    13 1   
    24    12    17 1   
    25    13    14 2   
    26    13    15 1   
    27    15    16 1   
    28    15    41 1   
    29    16    17 ar  
    30    16    21 ar  
    31    17    18 ar  
    32    18    19 ar  
    33    18    42 1   
    34    19    20 ar  
    35    19    22 1   
    36    20    21 ar  
    37    20    43 1   
    38    21    44 1   
    39    22    23 2   
    40    22    24 2   
    41    22    25 1   
    42    25    26 1   
    43    25    31 1   
    44    26    27 1   
    45    26    45 1   
    46    26    46 1   
    47    27    28 1   
    48    27    47 1   
    49    27    48 1   
    50    28    29 1   
    51    28    30 1   
    52    28    49 1   
    53    29    50 1   
    54    30    31 1   
    55    30    51 1   
    56    30    52 1   
    57    31    53 1   
    58    31    54 1   
@<TRIPOS>SUBSTRUCTURE
     1 RYU         1 TEMP              0 ****  ****    0 ROOT
