@<TRIPOS>MOLECULE
RYV
   28    28     1     0     0
SMALL
bcc


@<TRIPOS>ATOM
      1 S            0.0000     0.0000     0.0000 sy         1 RYV       0.935200
      2 N'           6.6830     0.0070    -1.1670 ns         1 RYV      -0.173900
      3 O'           6.6170     0.0110     1.0530 o          1 RYV      -0.612100
      4 C1           4.5310     0.0000     0.0000 ca         1 RYV      -0.038600
      5 C2           2.4510     0.0000     1.2000 ca         1 RYV       0.006500
      6 C3           3.8310     0.0000     1.2070 ca         1 RYV      -0.076000
      7 C4           1.7620     0.0010     0.0000 ca         1 RYV      -0.220500
      8 C5           3.8300    -0.0000    -1.2070 ca         1 RYV      -0.076000
      9 C6           2.4510    -0.0000    -1.2000 ca         1 RYV       0.006500
     10 C1'          8.1490     0.0120    -1.1680 c3         1 RYV       0.047000
     11 O1S         -0.4010    -0.5440    -1.2500 o          1 RYV      -0.493800
     12 C2'          8.6580     0.0120    -2.6090 c3         1 RYV      -0.006100
     13 O2S         -0.4020    -0.5450     1.2500 o          1 RYV      -0.493800
     14 N3S         -0.4900     1.5820     0.0000 nz         1 RYV      -0.131500
     15 HN'          6.1830    -0.0130    -2.0340 hn         1 RYV       0.175500
     16 H2           1.9060     0.0000     2.1370 ha         1 RYV       0.127500
     17 H3           4.3690     0.0000     2.1470 ha         1 RYV       0.142500
     18 H5           4.3680    -0.0010    -2.1470 ha         1 RYV       0.142500
     19 H6           1.9060    -0.0010    -2.1360 ha         1 RYV       0.127500
     20 H1'          8.5130    -0.8700    -0.6550 h1         1 RYV       0.034700
     21 H1'A         8.5070     0.8990    -0.6590 h1         1 RYV       0.034700
     22 H2'          8.2900     0.8920    -3.1230 hc         1 RYV       0.013367
     23 H2'A         8.3030    -0.8770    -3.1170 hc         1 RYV       0.013367
     24 H2'B         9.7410     0.0200    -2.6090 hc         1 RYV       0.013367
     25 HN3S        -0.1380     2.0400     0.8180 hn         1 RYV       0.313800
     26 HN3A        -0.1380     2.0410    -0.8170 hn         1 RYV       0.313800
     27 H3S3        -1.4900     1.6220     0.0010 hn         1 RYV       0.313800
     28 C7           6.0100     0.0060    -0.0000 c          1 RYV       0.560700
@<TRIPOS>BOND
     1     1     7 1   
     2     1    11 2   
     3     1    13 2   
     4     1    14 1   
     5     2    10 1   
     6     2    15 1   
     7     2    28 1   
     8     3    28 2   
     9     4     6 ar  
    10     4     8 ar  
    11     4    28 1   
    12     5     6 ar  
    13     5     7 ar  
    14     5    16 1   
    15     6    17 1   
    16     7     9 ar  
    17     8     9 ar  
    18     8    18 1   
    19     9    19 1   
    20    10    12 1   
    21    10    20 1   
    22    10    21 1   
    23    12    22 1   
    24    12    23 1   
    25    12    24 1   
    26    14    25 1   
    27    14    26 1   
    28    14    27 1   
@<TRIPOS>SUBSTRUCTURE
     1 RYV         1 TEMP              0 ****  ****    0 ROOT
