@<TRIPOS>MOLECULE
molecule
   31    31     1     0     0
SMALL
bcc


@<TRIPOS>ATOM
      1 S            0.0000     0.0000     0.0000 sy         1 RYX       1.227200
      2 N'           6.6840     0.0060     1.1670 ns         1 RYX      -0.570900
      3 O'           6.6180     0.0120    -1.0530 o          1 RYX      -0.561100
      4 C1           4.5320     0.0000     0.0000 ca         1 RYX      -0.040600
      5 C2           2.4510    -0.0000     1.2000 ca         1 RYX      -0.033000
      6 C3           3.8310     0.0000     1.2070 ca         1 RYX      -0.094000
      7 C4           1.7620    -0.0000     0.0010 ca         1 RYX      -0.330500
      8 C5           3.8310     0.0000    -1.2070 ca         1 RYX      -0.094000
      9 C6           2.4510     0.0000    -1.2000 ca         1 RYX      -0.033000
     10 F2'1         8.1880     1.1490     3.2720 f          1 RYX      -0.203300
     11 F3'1        10.6560     0.0150     3.9280 f          1 RYX      -0.196300
     12 F2'2         8.1980    -1.1350     3.2650 f          1 RYX      -0.203300
     13 F3'2        10.6510     1.1630     1.9520 f          1 RYX      -0.196300
     14 F3'3        10.6610    -1.1210     1.9460 f          1 RYX      -0.196300
     15 C1'          8.1490     0.0120     1.1670 c3         1 RYX       0.071000
     16 O1S         -0.4010    -0.5440    -1.2500 o          1 RYX      -0.512800
     17 C2'          8.6590     0.0100     2.6090 c3         1 RYX       0.344600
     18 O2S         -0.4010    -0.5450     1.2500 o          1 RYX      -0.512800
     19 C3'         10.1890     0.0170     2.6090 c3         1 RYX       0.594900
     20 N3S         -0.4900     1.5820     0.0010 nz         1 RYX      -0.807500
     21 HN'          6.1840    -0.0170     2.0340 hn         1 RYX       0.328500
     22 H2           1.9060    -0.0000     2.1360 ha         1 RYX       0.161500
     23 H3           4.3680    -0.0000     2.1470 ha         1 RYX       0.176500
     24 H5           4.3690     0.0000    -2.1470 ha         1 RYX       0.176500
     25 H6           1.9060     0.0000    -2.1360 ha         1 RYX       0.161500
     26 H1'          8.5070     0.9000     0.6590 h1         1 RYX       0.100700
     27 H1'A         8.5140    -0.8690     0.6540 h1         1 RYX       0.100700
     28 HN3S        -1.4910     1.6210     0.0010 hn         1 RYX       0.493467
     29 HN3A        -0.1380     2.0410    -0.8150 hn         1 RYX       0.493467
     30 H3S3        -0.1390     2.0400     0.8190 hn         1 RYX       0.493467
     31 C7           6.0100     0.0070    -0.0000 c          1 RYX       0.660700
@<TRIPOS>BOND
     1     7     1 1
     2    20     1 1
     3    16     1 2
     4     1    18 2
     5    15     2 1
     6     2    31 1
     7     2    21 1
     8     3    31 2
     9    31     4 1
    10     4     8 ar
    11     4     6 ar
    12     6     5 ar
    13     5     7 ar
    14     5    22 1
    15     6    23 1
    16     9     7 ar
    17     8     9 ar
    18     8    24 1
    19     9    25 1
    20    10    17 1
    21    11    19 1
    22    17    12 1
    23    19    13 1
    24    19    14 1
    25    15    17 1
    26    15    26 1
    27    15    27 1
    28    19    17 1
    29    20    28 1
    30    20    29 1
    31    30    20 1
@<TRIPOS>SUBSTRUCTURE
     1 RYX         1 TEMP              0 ****  ****    0 ROOT
