@<TRIPOS>MOLECULE
molecule
   31    31     1     0     0
SMALL
bcc


@<TRIPOS>ATOM
      1 N            0.0000     0.0000     0.0000 ns         1 RYY      -0.568900
      2 S            4.3540     0.0270    -5.2040 sy         1 RYY       1.224200
      3 C1           2.0880     0.0020    -1.2800 ca         1 RYY      -0.036600
      4 C2           1.3930     0.0090    -2.4910 ca         1 RYY      -0.097500
      5 C3           2.0890     0.0170    -3.6810 ca         1 RYY      -0.035000
      6 C4           3.4730     0.0170    -3.6770 ca         1 RYY      -0.331500
      7 C5           4.1670     0.0110    -2.4810 ca         1 RYY      -0.035000
      8 C6           3.4840     0.0040    -1.2830 ca         1 RYY      -0.097500
      9 C7           1.3480     0.0000     0.0000 c          1 RYY       0.648700
     10 O7           1.9560     0.0000     1.0530 o          1 RYY      -0.569100
     11 C1'         -0.7330     0.0030     1.2680 c3         1 RYY       0.108000
     12 C16         -3.0020     0.0060     2.3130 c3         1 RYY      -0.088100
     13 O1S          5.6380    -0.5190    -4.9290 o          1 RYY      -0.515300
     14 C2'         -2.2370     0.0020     0.9880 c3         1 RYY      -0.103400
     15 O2S          3.4730    -0.5130    -6.1790 o          1 RYY      -0.515300
     16 N3S          4.5980     1.6110    -5.6190 nz         1 RYY      -0.806500
     17 HN          -0.5000    -0.0040    -0.8670 hn         1 RYY       0.313500
     18 H2           0.3090     0.0080    -2.4950 ha         1 RYY       0.176000
     19 H3           1.5520     0.0220    -4.6220 ha         1 RYY       0.159000
     20 H5           5.2510     0.0120    -2.4860 ha         1 RYY       0.159000
     21 H6           4.0290    -0.0010    -0.3470 ha         1 RYY       0.176000
     22 H1'         -0.4710    -0.8790     1.8390 h1         1 RYY       0.065200
     23 H1'A        -0.4720     0.8890     1.8340 h1         1 RYY       0.065200
     24 H16         -2.7410     0.8920     2.8790 hc         1 RYY       0.045367
     25 H16A        -2.7400    -0.8770     2.8840 hc         1 RYY       0.045367
     26 H16B        -4.0670     0.0050     2.1150 hc         1 RYY       0.045367
     27 H2'         -2.5000     0.8840     0.4170 hc         1 RYY       0.045200
     28 H2'A        -2.4990    -0.8850     0.4230 hc         1 RYY       0.045200
     29 HN3S         3.7140     2.0690    -5.7210 hn         1 RYY       0.493133
     30 HN3A         5.1290     2.0660    -4.9030 hn         1 RYY       0.493133
     31 H3S3         5.0990     1.6560    -6.4840 hn         1 RYY       0.493133
@<TRIPOS>BOND
     1    11     1 1
     2     1     9 1
     3     1    17 1
     4     6     2 1
     5    16     2 1
     6     2    15 2
     7     2    13 2
     8     9     3 1
     9     3     8 ar
    10     3     4 ar
    11     4     5 ar
    12     4    18 1
    13     5     6 ar
    14     5    19 1
    15     7     6 ar
    16     8     7 ar
    17     7    20 1
    18     8    21 1
    19    10     9 2
    20    14    11 1
    21    11    22 1
    22    11    23 1
    23    12    14 1
    24    12    24 1
    25    12    25 1
    26    12    26 1
    27    14    27 1
    28    14    28 1
    29    16    29 1
    30    16    30 1
    31    31    16 1
@<TRIPOS>SUBSTRUCTURE
     1 RYY         1 TEMP              0 ****  ****    0 ROOT
