@<TRIPOS>MOLECULE
RYZ
   34    34     1     0     0
SMALL
bcc


@<TRIPOS>ATOM
      1 S            0.0000     0.0000     0.0000 sy         1 RYZ       0.936200
      2 N'           6.6840     0.0060     1.1670 ns         1 RYZ      -0.171900
      3 O'           6.6180     0.0110    -1.0540 o          1 RYZ      -0.602100
      4 C1           4.5320     0.0000     0.0000 ca         1 RYZ      -0.044600
      5 C2           2.4510     0.0000     1.2000 ca         1 RYZ       0.007500
      6 C3           3.8310     0.0000     1.2060 ca         1 RYZ      -0.071500
      7 C4           1.7630     0.0000    -0.0000 ca         1 RYZ      -0.216500
      8 C5           3.8310    -0.0010    -1.2070 ca         1 RYZ      -0.071500
      9 C6           2.4510    -0.0010    -1.2000 ca         1 RYZ       0.007500
     10 F2'1         8.1880     1.1510     3.2700 f          1 RYZ      -0.188300
     11 F3'1        10.6610    -1.1210     1.9470 f          1 RYZ      -0.167300
     12 F4'1        12.0990     0.0230     4.0510 f          1 RYZ      -0.177967
     13 F2'2         8.1980    -1.1340     3.2660 f          1 RYZ      -0.188300
     14 F3'2        10.6510     1.1640     1.9520 f          1 RYZ      -0.167300
     15 F4'2        10.2380    -1.1280     4.7090 f          1 RYZ      -0.177967
     16 F4'3        10.2280     1.1560     4.7130 f          1 RYZ      -0.177967
     17 C1'          8.1490     0.0120     1.1670 c3         1 RYZ       0.003000
     18 O1S         -0.4010    -0.5440    -1.2500 o          1 RYZ      -0.492300
     19 C2'          8.6590     0.0120     2.6090 c3         1 RYZ       0.329600
     20 O2S         -0.4000    -0.5440     1.2500 o          1 RYZ      -0.492300
     21 C3'         10.1890     0.0180     2.6090 c3         1 RYZ       0.304600
     22 N3S         -0.4900     1.5820    -0.0010 nz         1 RYZ      -0.131500
     23 C4'         10.6990     0.0170     4.0510 c3         1 RYZ       0.555900
     24 HN'          6.1830    -0.0210     2.0330 hn         1 RYZ       0.187500
     25 H2           1.9060     0.0000     2.1360 ha         1 RYZ       0.130000
     26 H3           4.3690     0.0010     2.1460 ha         1 RYZ       0.143000
     27 H5           4.3690    -0.0010    -2.1470 ha         1 RYZ       0.143000
     28 H6           1.9060    -0.0020    -2.1370 ha         1 RYZ       0.130000
     29 H1'          8.5060     0.8990     0.6570 h1         1 RYZ       0.072700
     30 H1'A         8.5140    -0.8700     0.6540 h1         1 RYZ       0.072700
     31 HN3S        -1.4900     1.6220    -0.0100 hn         1 RYZ       0.314133
     32 HN3A        -0.1310     2.0420    -0.8140 hn         1 RYZ       0.314133
     33 H3S3        -0.1450     2.0390     0.8200 hn         1 RYZ       0.314133
     34 C7           6.0100     0.0060    -0.0000 c          1 RYZ       0.572700
@<TRIPOS>BOND
     1     1     7 1   
     2     1    18 2   
     3     1    20 2   
     4     1    22 1   
     5     2    17 1   
     6     2    24 1   
     7     2    34 1   
     8     3    34 2   
     9     4     6 ar  
    10     4     8 ar  
    11     4    34 1   
    12     5     6 ar  
    13     5     7 ar  
    14     5    25 1   
    15     6    26 1   
    16     7     9 ar  
    17     8     9 ar  
    18     8    27 1   
    19     9    28 1   
    20    10    19 1   
    21    11    21 1   
    22    12    23 1   
    23    13    19 1   
    24    14    21 1   
    25    15    23 1   
    26    16    23 1   
    27    17    19 1   
    28    17    29 1   
    29    17    30 1   
    30    19    21 1   
    31    21    23 1   
    32    22    31 1   
    33    22    32 1   
    34    22    33 1   
@<TRIPOS>SUBSTRUCTURE
     1 RYZ         1 TEMP              0 ****  ****    0 ROOT
