@<TRIPOS>MOLECULE
RZ0
   34    34     1     0     0
SMALL
bcc


@<TRIPOS>ATOM
      1 S            0.0000     0.0000     0.0000 sy         1 RZ0       0.936200
      2 N'           6.6830     0.0060     1.1660 ns         1 RZ0      -0.168900
      3 O'           6.6170     0.0100    -1.0540 o          1 RZ0      -0.613100
      4 C1           4.5310     0.0000     0.0000 ca         1 RZ0      -0.037600
      5 C2           2.4510     0.0010     1.2000 ca         1 RZ0       0.006500
      6 C3           3.8300     0.0000     1.2060 ca         1 RZ0      -0.076000
      7 C4           1.7610    -0.0000    -0.0000 ca         1 RZ0      -0.221500
      8 C5           3.8300    -0.0000    -1.2070 ca         1 RZ0      -0.076000
      9 C6           2.4500    -0.0010    -1.2000 ca         1 RZ0       0.006500
     10 C1'          8.1490     0.0120     1.1670 c3         1 RZ0       0.044000
     11 O1S         -0.4020    -0.5450    -1.2490 o          1 RZ0      -0.494300
     12 C2'          8.6590     0.0120     2.6090 c3         1 RZ0      -0.042400
     13 O2S         -0.4010    -0.5440     1.2500 o          1 RZ0      -0.494300
     14 C3'         10.1880     0.0180     2.6080 c3         1 RZ0      -0.020400
     15 N3S         -0.4900     1.5830    -0.0010 nz         1 RZ0      -0.131500
     16 C4'         10.6990     0.0180     4.0510 c3         1 RZ0       0.007900
     17 HN'          6.1830     0.0010     2.0330 hn         1 RZ0       0.174500
     18 H2           1.9060     0.0010     2.1360 ha         1 RZ0       0.127500
     19 H3           4.3680     0.0010     2.1470 ha         1 RZ0       0.142500
     20 H5           4.3680    -0.0010    -2.1470 ha         1 RZ0       0.142500
     21 H6           1.9050    -0.0010    -2.1370 ha         1 RZ0       0.127500
     22 H1'          8.5140    -0.8700     0.6540 h1         1 RZ0       0.037200
     23 H1'A         8.5060     0.8990     0.6580 h1         1 RZ0       0.037200
     24 H2'          8.2940     0.8940     3.1210 hc         1 RZ0       0.016700
     25 H2'A         8.3010    -0.8750     3.1180 hc         1 RZ0       0.016700
     26 HN3S        -0.1380     2.0410    -0.8180 hn         1 RZ0       0.313800
     27 HN3A        -0.1380     2.0410     0.8160 hn         1 RZ0       0.313800
     28 H4'         10.3350     0.9000     4.5630 hc         1 RZ0       0.005033
     29 H4'A        11.7830     0.0230     4.0500 hc         1 RZ0       0.005033
     30 H14         10.3420    -0.8690     4.5600 hc         1 RZ0       0.005033
     31 H3'         10.5530    -0.8640     2.0960 hc         1 RZ0       0.019700
     32 H16         10.5460     0.9050     2.0990 hc         1 RZ0       0.019700
     33 H3S3        -1.4900     1.6220     0.0050 hn         1 RZ0       0.313800
     34 C7           6.0090     0.0060    -0.0000 c          1 RZ0       0.558700
@<TRIPOS>BOND
     1     1     7 1   
     2     1    11 2   
     3     1    13 2   
     4     1    15 1   
     5     2    10 1   
     6     2    17 1   
     7     2    34 1   
     8     3    34 2   
     9     4     6 ar  
    10     4     8 ar  
    11     4    34 1   
    12     5     6 ar  
    13     5     7 ar  
    14     5    18 1   
    15     6    19 1   
    16     7     9 ar  
    17     8     9 ar  
    18     8    20 1   
    19     9    21 1   
    20    10    12 1   
    21    10    22 1   
    22    10    23 1   
    23    12    14 1   
    24    12    24 1   
    25    12    25 1   
    26    14    16 1   
    27    14    31 1   
    28    14    32 1   
    29    15    26 1   
    30    15    27 1   
    31    15    33 1   
    32    16    28 1   
    33    16    29 1   
    34    16    30 1   
@<TRIPOS>SUBSTRUCTURE
     1 RZ0         1 TEMP              0 ****  ****    0 ROOT
