@<TRIPOS>MOLECULE
molecule
   34    34     1     0     0
SMALL
bcc


@<TRIPOS>ATOM
      1 S            0.0000     0.0000     0.0000 sy         1 RZ0       1.227200
      2 N'           6.6830     0.0060     1.1660 ns         1 RZ0      -0.567900
      3 O'           6.6170     0.0100    -1.0540 o          1 RZ0      -0.570100
      4 C1           4.5310     0.0000     0.0000 ca         1 RZ0      -0.035600
      5 C2           2.4510     0.0010     1.2000 ca         1 RZ0      -0.034500
      6 C3           3.8300     0.0000     1.2060 ca         1 RZ0      -0.098000
      7 C4           1.7610    -0.0000    -0.0000 ca         1 RZ0      -0.334500
      8 C5           3.8300    -0.0000    -1.2070 ca         1 RZ0      -0.098000
      9 C6           2.4500    -0.0010    -1.2000 ca         1 RZ0      -0.034500
     10 C1'          8.1490     0.0120     1.1670 c3         1 RZ0       0.107000
     11 O1S         -0.4020    -0.5450    -1.2490 o          1 RZ0      -0.515300
     12 C2'          8.6590     0.0120     2.6090 c3         1 RZ0      -0.101400
     13 O2S         -0.4010    -0.5440     1.2500 o          1 RZ0      -0.515300
     14 C3'         10.1880     0.0180     2.6080 c3         1 RZ0      -0.079400
     15 N3S         -0.4900     1.5830    -0.0010 nz         1 RZ0      -0.806500
     16 C4'         10.6990     0.0180     4.0510 c3         1 RZ0      -0.091100
     17 HN'          6.1830     0.0010     2.0330 hn         1 RZ0       0.313500
     18 H2           1.9060     0.0010     2.1360 ha         1 RZ0       0.159000
     19 H3           4.3680     0.0010     2.1470 ha         1 RZ0       0.175500
     20 H5           4.3680    -0.0010    -2.1470 ha         1 RZ0       0.175500
     21 H6           1.9050    -0.0010    -2.1370 ha         1 RZ0       0.159000
     22 H1'          8.5140    -0.8700     0.6540 h1         1 RZ0       0.065200
     23 H1'A         8.5060     0.8990     0.6580 h1         1 RZ0       0.065200
     24 H2'          8.2940     0.8940     3.1210 hc         1 RZ0       0.046200
     25 H2'A         8.3010    -0.8750     3.1180 hc         1 RZ0       0.046200
     26 HN3S        -0.1380     2.0410    -0.8180 hn         1 RZ0       0.492467
     27 HN3A        -0.1380     2.0410     0.8160 hn         1 RZ0       0.492467
     28 H4'         10.3350     0.9000     4.5630 hc         1 RZ0       0.039033
     29 H4'A        11.7830     0.0230     4.0500 hc         1 RZ0       0.039033
     30 H14         10.3420    -0.8690     4.5600 hc         1 RZ0       0.039033
     31 H3'         10.5530    -0.8640     2.0960 hc         1 RZ0       0.049200
     32 H16         10.5460     0.9050     2.0990 hc         1 RZ0       0.049200
     33 H3S3        -1.4900     1.6220     0.0050 hn         1 RZ0       0.492467
     34 C7           6.0090     0.0060    -0.0000 c          1 RZ0       0.648700
@<TRIPOS>BOND
     1     1    13 2
     2     2    34 1
     3     2    17 1
     4     3    34 2
     5     4     8 ar
     6     4     6 ar
     7     5     7 ar
     8     5    18 1
     9     6     5 ar
    10     6    19 1
    11     7     1 1
    12     8     9 ar
    13     8    20 1
    14     9     7 ar
    15     9    21 1
    16    34     4 1
    17    10     2 1
    18    10    22 1
    19    10    23 1
    20    11     1 2
    21    12    10 1
    22    12    14 1
    23    12    24 1
    24    12    25 1
    25    14    16 1
    26    15     1 1
    27    15    26 1
    28    15    27 1
    29    16    28 1
    30    16    29 1
    31    16    30 1
    32    14    31 1
    33    14    32 1
    34    33    15 1
@<TRIPOS>SUBSTRUCTURE
     1 RZ0         1 TEMP              0 ****  ****    0 ROOT
