@<TRIPOS>MOLECULE
RZ1
   37    37     1     0     0
SMALL
bcc


@<TRIPOS>ATOM
      1 S            0.0000     0.0000     0.0000 sy         1 RZ1       0.937200
      2 N'           6.6840     0.0060     1.1660 ns         1 RZ1      -0.172900
      3 O'           6.6180     0.0120    -1.0540 o          1 RZ1      -0.601100
      4 C1           4.5310     0.0000     0.0000 ca         1 RZ1      -0.044600
      5 C2           2.4510     0.0000     1.2000 ca         1 RZ1       0.007500
      6 C3           3.8310     0.0000     1.2070 ca         1 RZ1      -0.071500
      7 C4           1.7630     0.0010    -0.0000 ca         1 RZ1      -0.216500
      8 C5           3.8300     0.0010    -1.2080 ca         1 RZ1      -0.071500
      9 C6           2.4510    -0.0000    -1.2000 ca         1 RZ1       0.007500
     10 F2'1         8.1880     1.1490     3.2710 f          1 RZ1      -0.188300
     11 F3'1        10.6610    -1.1220     1.9460 f          1 RZ1      -0.167300
     12 F4'1        10.2290     1.1530     4.7140 f          1 RZ1      -0.164300
     13 F5'1        12.7010    -1.1170     3.3890 f          1 RZ1      -0.176300
     14 F2'2         8.1980    -1.1360     3.2650 f          1 RZ1      -0.188300
     15 F3'2        10.6510     1.1630     1.9530 f          1 RZ1      -0.167300
     16 F4'2        10.2380    -1.1300     4.7080 f          1 RZ1      -0.164300
     17 F5'2        12.6960     0.0200     5.3690 f          1 RZ1      -0.176300
     18 F5'3        12.6900     1.1680     3.3940 f          1 RZ1      -0.176300
     19 C1'          8.1490     0.0120     1.1660 c3         1 RZ1       0.003000
     20 O1S         -0.4010    -0.5430    -1.2500 o          1 RZ1      -0.492300
     21 C2'          8.6590     0.0110     2.6090 c3         1 RZ1       0.332600
     22 O2S         -0.4010    -0.5440     1.2500 o          1 RZ1      -0.492300
     23 C3'         10.1890     0.0170     2.6090 c3         1 RZ1       0.320600
     24 N3S         -0.4900     1.5820     0.0010 nz         1 RZ1      -0.131500
     25 C4'         10.6990     0.0150     4.0510 c3         1 RZ1       0.300600
     26 C5'         12.2290     0.0220     4.0510 c3         1 RZ1       0.558900
     27 HN'          6.1840     0.0020     2.0330 hn         1 RZ1       0.187500
     28 H2           1.9060     0.0000     2.1360 ha         1 RZ1       0.129500
     29 H3           4.3690    -0.0000     2.1470 ha         1 RZ1       0.143000
     30 H5           4.3680     0.0000    -2.1480 ha         1 RZ1       0.143000
     31 H6           1.9050     0.0000    -2.1360 ha         1 RZ1       0.129500
     32 H1'          8.5140    -0.8700     0.6540 h1         1 RZ1       0.072700
     33 H1'A         8.5070     0.8990     0.6580 h1         1 RZ1       0.072700
     34 HN3S        -0.1380     2.0410    -0.8160 hn         1 RZ1       0.314467
     35 HN3A        -1.4900     1.6210     0.0010 hn         1 RZ1       0.314467
     36 H3S3        -0.1380     2.0400     0.8190 hn         1 RZ1       0.314467
     37 C7           6.0100     0.0060    -0.0010 c          1 RZ1       0.572700
@<TRIPOS>BOND
     1     1     7 1   
     2     1    20 2   
     3     1    22 2   
     4     1    24 1   
     5     2    19 1   
     6     2    27 1   
     7     2    37 1   
     8     3    37 2   
     9     4     6 ar  
    10     4     8 ar  
    11     4    37 1   
    12     5     6 ar  
    13     5     7 ar  
    14     5    28 1   
    15     6    29 1   
    16     7     9 ar  
    17     8     9 ar  
    18     8    30 1   
    19     9    31 1   
    20    10    21 1   
    21    11    23 1   
    22    12    25 1   
    23    13    26 1   
    24    14    21 1   
    25    15    23 1   
    26    16    25 1   
    27    17    26 1   
    28    18    26 1   
    29    19    21 1   
    30    19    32 1   
    31    19    33 1   
    32    21    23 1   
    33    23    25 1   
    34    24    34 1   
    35    24    35 1   
    36    24    36 1   
    37    25    26 1   
@<TRIPOS>SUBSTRUCTURE
     1 RZ1         1 TEMP              0 ****  ****    0 ROOT
