@<TRIPOS>MOLECULE
RZ5
   37    37     1     0     0
SMALL
bcc


@<TRIPOS>ATOM
      1 S            0.0000     0.0000     0.0000 sy         1 RZ5       0.935200
      2 N'           6.6840     0.0060     1.1660 ns         1 RZ5      -0.168900
      3 O'           6.6170     0.0130    -1.0540 o          1 RZ5      -0.613100
      4 C1           4.5310     0.0000     0.0000 ca         1 RZ5      -0.037600
      5 C2           2.4500    -0.0010     1.2000 ca         1 RZ5       0.006000
      6 C3           3.8300     0.0000     1.2060 ca         1 RZ5      -0.076000
      7 C4           1.7620     0.0000     0.0000 ca         1 RZ5      -0.220500
      8 C5           3.8300     0.0010    -1.2070 ca         1 RZ5      -0.076000
      9 C6           2.4500     0.0000    -1.2000 ca         1 RZ5       0.006000
     10 C1'          8.1480     0.0120     1.1660 c3         1 RZ5       0.044000
     11 O1S         -0.4020    -0.5440    -1.2500 o          1 RZ5      -0.493800
     12 C2'          8.6590     0.0110     2.6090 c3         1 RZ5      -0.042400
     13 O2S         -0.4010    -0.5460     1.2490 o          1 RZ5      -0.493800
     14 C3'         10.1890     0.0170     2.6090 c3         1 RZ5      -0.022400
     15 N3S         -0.4900     1.5810     0.0010 nz         1 RZ5      -0.132500
     16 C4'         10.6990     0.0160     4.0510 c3         1 RZ5      -0.027400
     17 C5'         12.2290     0.0220     4.0510 c3         1 RZ5       0.007900
     18 HN'          6.1840     0.0010     2.0330 hn         1 RZ5       0.174500
     19 H2           1.9050    -0.0010     2.1360 ha         1 RZ5       0.127500
     20 H3           4.3680    -0.0010     2.1470 ha         1 RZ5       0.142500
     21 H5           4.3680     0.0010    -2.1470 ha         1 RZ5       0.142500
     22 H6           1.9050     0.0010    -2.1360 ha         1 RZ5       0.127500
     23 H1'          8.5050     0.9000     0.6580 h1         1 RZ5       0.037200
     24 H1'A         8.5130    -0.8690     0.6530 h1         1 RZ5       0.037200
     25 H2'          8.2940     0.8930     3.1220 hc         1 RZ5       0.016200
     26 H2'A         8.3020    -0.8760     3.1180 hc         1 RZ5       0.016200
     27 H3'         10.5540    -0.8650     2.0960 hc         1 RZ5       0.021700
     28 H3'A        10.5460     0.9040     2.1000 hc         1 RZ5       0.021700
     29 HN3S        -0.1440     2.0380     0.8220 hn         1 RZ5       0.314133
     30 HN3A        -0.1330     2.0420    -0.8120 hn         1 RZ5       0.314133
     31 H4'         10.3340     0.8980     4.5640 hc         1 RZ5       0.012200
     32 H4'A        10.3420    -0.8710     4.5590 hc         1 RZ5       0.012200
     33 H5'         12.5940    -0.8570     3.5330 hc         1 RZ5       0.005033
     34 H5'A        12.5900     0.0160     5.0720 hc         1 RZ5       0.005033
     35 H5'B        12.5860     0.9120     3.5470 hc         1 RZ5       0.005033
     36 H3S3        -1.4910     1.6210    -0.0000 hn         1 RZ5       0.314133
     37 C7           6.0090     0.0060    -0.0000 c          1 RZ5       0.558700
@<TRIPOS>BOND
     1     1     7 1   
     2     1    11 2   
     3     1    13 2   
     4     1    15 1   
     5     2    10 1   
     6     2    18 1   
     7     2    37 1   
     8     3    37 2   
     9     4     6 ar  
    10     4     8 ar  
    11     4    37 1   
    12     5     6 ar  
    13     5     7 ar  
    14     5    19 1   
    15     6    20 1   
    16     7     9 ar  
    17     8     9 ar  
    18     8    21 1   
    19     9    22 1   
    20    10    12 1   
    21    10    23 1   
    22    10    24 1   
    23    12    14 1   
    24    12    25 1   
    25    12    26 1   
    26    14    16 1   
    27    14    27 1   
    28    14    28 1   
    29    15    29 1   
    30    15    30 1   
    31    15    36 1   
    32    16    17 1   
    33    16    31 1   
    34    16    32 1   
    35    17    33 1   
    36    17    34 1   
    37    17    35 1   
@<TRIPOS>SUBSTRUCTURE
     1 RZ5         1 TEMP              0 ****  ****    0 ROOT
