@<TRIPOS>MOLECULE
RZ7
   40    40     1     0     0
SMALL
bcc


@<TRIPOS>ATOM
      1 S            0.0000     0.0000     0.0000 sy         1 RZ7       0.936200
      2 N'           6.6840     0.0060     1.1680 ns         1 RZ7      -0.171900
      3 O'           6.6170     0.0100    -1.0520 o          1 RZ7      -0.601100
      4 C1           4.5310     0.0000     0.0000 ca         1 RZ7      -0.043600
      5 C2           2.4510     0.0010     1.2010 ca         1 RZ7       0.008000
      6 C3           3.8300     0.0000     1.2070 ca         1 RZ7      -0.072000
      7 C4           1.7620    -0.0000     0.0010 ca         1 RZ7      -0.217500
      8 C5           3.8300    -0.0010    -1.2060 ca         1 RZ7      -0.072000
      9 C6           2.4500    -0.0010    -1.2000 ca         1 RZ7       0.008000
     10 F2'1         8.1870     1.1520     3.2720 f          1 RZ7      -0.188300
     11 F3'1        10.6590    -1.1210     1.9490 f          1 RZ7      -0.166800
     12 F4'1        10.2270     1.1570     4.7140 f          1 RZ7      -0.164300
     13 F5'1        12.7000    -1.1140     3.3920 f          1 RZ7      -0.162300
     14 F6'1        12.2770    -1.1210     6.1530 f          1 RZ7      -0.176633
     15 F2'2         8.1970    -1.1330     3.2680 f          1 RZ7      -0.188300
     16 F3'2        10.6490     1.1640     1.9530 f          1 RZ7      -0.166800
     17 F4'2        10.2360    -1.1260     4.7100 f          1 RZ7      -0.164300
     18 F5'2        12.6900     1.1710     3.3950 f          1 RZ7      -0.162300
     19 F6'2        12.2670     1.1640     6.1570 f          1 RZ7      -0.176633
     20 F6'3        14.1370     0.0300     5.4950 f          1 RZ7      -0.176633
     21 C1'          8.1480     0.0130     1.1680 c3         1 RZ7       0.003000
     22 O1S         -0.4020    -0.5450    -1.2500 o          1 RZ7      -0.492300
     23 C2'          8.6580     0.0130     2.6100 c3         1 RZ7       0.332600
     24 O2S         -0.4010    -0.5440     1.2500 o          1 RZ7      -0.492300
     25 C3'         10.1880     0.0190     2.6100 c3         1 RZ7       0.323600
     26 N3S         -0.4900     1.5820    -0.0010 nz         1 RZ7      -0.131500
     27 C4'         10.6980     0.0180     4.0530 c3         1 RZ7       0.317600
     28 C5'         12.2280     0.0250     4.0530 c3         1 RZ7       0.304600
     29 C6'         12.7390     0.0250     5.4950 c3         1 RZ7       0.559900
     30 HN'          6.1840     0.0020     2.0340 hn         1 RZ7       0.187500
     31 H2           1.9050     0.0010     2.1370 ha         1 RZ7       0.130000
     32 H3           4.3680     0.0010     2.1480 ha         1 RZ7       0.143000
     33 H5           4.3680    -0.0020    -2.1470 ha         1 RZ7       0.143000
     34 H6           1.9050    -0.0020    -2.1360 ha         1 RZ7       0.130000
     35 H1'          8.5060     0.9000     0.6590 h1         1 RZ7       0.073200
     36 H1'A         8.5140    -0.8690     0.6560 h1         1 RZ7       0.073200
     37 HN3S        -1.4900     1.6210    -0.0010 hn         1 RZ7       0.314467
     38 HN3A        -0.1390     2.0410     0.8170 hn         1 RZ7       0.314467
     39 H3S3        -0.1380     2.0400    -0.8180 hn         1 RZ7       0.314467
     40 C7           6.0090     0.0050     0.0010 c          1 RZ7       0.572700
@<TRIPOS>BOND
     1     1     7 1   
     2     1    22 2   
     3     1    24 2   
     4     1    26 1   
     5     2    21 1   
     6     2    30 1   
     7     2    40 1   
     8     3    40 2   
     9     4     6 ar  
    10     4     8 ar  
    11     4    40 1   
    12     5     6 ar  
    13     5     7 ar  
    14     5    31 1   
    15     6    32 1   
    16     7     9 ar  
    17     8     9 ar  
    18     8    33 1   
    19     9    34 1   
    20    10    23 1   
    21    11    25 1   
    22    12    27 1   
    23    13    28 1   
    24    14    29 1   
    25    15    23 1   
    26    16    25 1   
    27    17    27 1   
    28    18    28 1   
    29    19    29 1   
    30    20    29 1   
    31    21    23 1   
    32    21    35 1   
    33    21    36 1   
    34    23    25 1   
    35    25    27 1   
    36    26    37 1   
    37    26    38 1   
    38    26    39 1   
    39    27    28 1   
    40    28    29 1   
@<TRIPOS>SUBSTRUCTURE
     1 RZ7         1 TEMP              0 ****  ****    0 ROOT
