@<TRIPOS>MOLECULE
molecule
   40    40     1     0     0
SMALL
bcc


@<TRIPOS>ATOM
      1 S            0.0000     0.0000     0.0000 sy         1 RZ7       1.227200
      2 N'           6.6840     0.0060     1.1680 ns         1 RZ7      -0.570900
      3 O'           6.6170     0.0100    -1.0520 o          1 RZ7      -0.561100
      4 C1           4.5310     0.0000     0.0000 ca         1 RZ7      -0.040600
      5 C2           2.4510     0.0010     1.2010 ca         1 RZ7      -0.033000
      6 C3           3.8300     0.0000     1.2070 ca         1 RZ7      -0.094000
      7 C4           1.7620    -0.0000     0.0010 ca         1 RZ7      -0.330500
      8 C5           3.8300    -0.0010    -1.2060 ca         1 RZ7      -0.094000
      9 C6           2.4500    -0.0010    -1.2000 ca         1 RZ7      -0.033000
     10 F2'1         8.1870     1.1520     3.2720 f          1 RZ7      -0.200800
     11 F3'1        10.6590    -1.1210     1.9490 f          1 RZ7      -0.177800
     12 F4'1        10.2270     1.1570     4.7140 f          1 RZ7      -0.171300
     13 F5'1        12.7000    -1.1140     3.3920 f          1 RZ7      -0.171300
     14 F6'1        12.2770    -1.1210     6.1530 f          1 RZ7      -0.188633
     15 F2'2         8.1970    -1.1330     3.2680 f          1 RZ7      -0.200800
     16 F3'2        10.6490     1.1640     1.9530 f          1 RZ7      -0.177800
     17 F4'2        10.2360    -1.1260     4.7100 f          1 RZ7      -0.171300
     18 F5'2        12.6900     1.1710     3.3950 f          1 RZ7      -0.171300
     19 F6'2        12.2670     1.1640     6.1570 f          1 RZ7      -0.188633
     20 F6'3        14.1370     0.0300     5.4950 f          1 RZ7      -0.188633
     21 C1'          8.1480     0.0130     1.1680 c3         1 RZ7       0.076000
     22 O1S         -0.4020    -0.5450    -1.2500 o          1 RZ7      -0.512800
     23 C2'          8.6580     0.0130     2.6100 c3         1 RZ7       0.353600
     24 O2S         -0.4010    -0.5440     1.2500 o          1 RZ7      -0.512800
     25 C3'         10.1880     0.0190     2.6100 c3         1 RZ7       0.339600
     26 N3S         -0.4900     1.5820    -0.0010 nz         1 RZ7      -0.807500
     27 C4'         10.6980     0.0180     4.0530 c3         1 RZ7       0.331600
     28 C5'         12.2280     0.0250     4.0530 c3         1 RZ7       0.326600
     29 C6'         12.7390     0.0250     5.4950 c3         1 RZ7       0.594900
     30 HN'          6.1840     0.0020     2.0340 hn         1 RZ7       0.327500
     31 H2           1.9050     0.0010     2.1370 ha         1 RZ7       0.161500
     32 H3           4.3680     0.0010     2.1480 ha         1 RZ7       0.176500
     33 H5           4.3680    -0.0020    -2.1470 ha         1 RZ7       0.176500
     34 H6           1.9050    -0.0020    -2.1360 ha         1 RZ7       0.161500
     35 H1'          8.5060     0.9000     0.6590 h1         1 RZ7       0.101200
     36 H1'A         8.5140    -0.8690     0.6560 h1         1 RZ7       0.101200
     37 HN3S        -1.4900     1.6210    -0.0010 hn         1 RZ7       0.493467
     38 HN3A        -0.1390     2.0410     0.8170 hn         1 RZ7       0.493467
     39 H3S3        -0.1380     2.0400    -0.8180 hn         1 RZ7       0.493467
     40 C7           6.0090     0.0050     0.0010 c          1 RZ7       0.660700
@<TRIPOS>BOND
     1     7     1 1
     2    26     1 1
     3    22     1 2
     4     1    24 2
     5    21     2 1
     6     2    40 1
     7     2    30 1
     8     3    40 2
     9    40     4 1
    10     4     8 ar
    11     4     6 ar
    12     6     5 ar
    13     5     7 ar
    14     5    31 1
    15     6    32 1
    16     9     7 ar
    17     8     9 ar
    18     8    33 1
    19     9    34 1
    20    23    10 1
    21    11    25 1
    22    27    12 1
    23    13    28 1
    24    29    14 1
    25    23    15 1
    26    16    25 1
    27    27    17 1
    28    28    18 1
    29    29    19 1
    30    20    29 1
    31    21    23 1
    32    21    35 1
    33    21    36 1
    34    25    23 1
    35    25    27 1
    36    26    37 1
    37    26    38 1
    38    28    27 1
    39    28    29 1
    40    39    26 1
@<TRIPOS>SUBSTRUCTURE
     1 RZ7         1 TEMP              0 ****  ****    0 ROOT
