@<TRIPOS>MOLECULE
molecule
   40    40     1     0     0
SMALL
bcc


@<TRIPOS>ATOM
      1 S            0.0000     0.0000     0.0000 sy         1 RZ8       1.228200
      2 N'           6.6840     0.0070    -1.1670 ns         1 RZ8      -0.568900
      3 O'           6.6170     0.0120     1.0530 o          1 RZ8      -0.568100
      4 C1           4.5310     0.0000     0.0000 ca         1 RZ8      -0.037600
      5 C2           2.4510    -0.0000     1.2000 ca         1 RZ8      -0.034500
      6 C3           3.8310     0.0000     1.2080 ca         1 RZ8      -0.097500
      7 C4           1.7620     0.0000     0.0000 ca         1 RZ8      -0.333500
      8 C5           3.8310    -0.0000    -1.2070 ca         1 RZ8      -0.097500
      9 C6           2.4510     0.0000    -1.2000 ca         1 RZ8      -0.034500
     10 C1'          8.1490     0.0130    -1.1670 c3         1 RZ8       0.108000
     11 O1S         -0.4010    -0.5450    -1.2490 o          1 RZ8      -0.516300
     12 C2'          8.6590     0.0120    -2.6090 c3         1 RZ8      -0.102400
     13 O2S         -0.4010    -0.5440     1.2490 o          1 RZ8      -0.516300
     14 C3'         10.1890     0.0190    -2.6090 c3         1 RZ8      -0.077400
     15 N3S         -0.4910     1.5810     0.0000 nz         1 RZ8      -0.807500
     16 C4'         10.6990     0.0170    -4.0510 c3         1 RZ8      -0.081400
     17 C5'         12.2290     0.0240    -4.0520 c3         1 RZ8      -0.083400
     18 C6'         12.7390     0.0230    -5.4950 c3         1 RZ8      -0.092100
     19 HN'          6.1830    -0.0170    -2.0330 hn         1 RZ8       0.313500
     20 H2           1.9050    -0.0000     2.1360 ha         1 RZ8       0.159000
     21 H3           4.3690    -0.0000     2.1480 ha         1 RZ8       0.176000
     22 H5           4.3690    -0.0000    -2.1470 ha         1 RZ8       0.176000
     23 H6           1.9060    -0.0000    -2.1360 ha         1 RZ8       0.159000
     24 H1'          8.5140    -0.8690    -0.6550 h1         1 RZ8       0.064700
     25 H1'A         8.5060     0.9000    -0.6580 h1         1 RZ8       0.064700
     26 H2'          8.3010    -0.8740    -3.1180 hc         1 RZ8       0.046200
     27 H2'A         8.2940     0.8950    -3.1210 hc         1 RZ8       0.046200
     28 H3'         10.5460     0.9060    -2.1010 hc         1 RZ8       0.049700
     29 H3'A        10.5530    -0.8630    -2.0960 hc         1 RZ8       0.049700
     30 HN3S        -1.4910     1.6200     0.0120 hn         1 RZ8       0.492800
     31 HN3A        -0.1290     2.0430     0.8120 hn         1 RZ8       0.492800
     32 H4'         10.3420    -0.8700    -4.5600 hc         1 RZ8       0.042200
     33 H4'A        10.3340     0.8990    -4.5640 hc         1 RZ8       0.042200
     34 H5'         12.5870     0.9110    -3.5430 hc         1 RZ8       0.043200
     35 H5'A        12.5940    -0.8580    -3.5390 hc         1 RZ8       0.043200
     36 H6'         12.3780     0.9070    -6.0060 hc         1 RZ8       0.036367
     37 H6'A        13.8220     0.0240    -5.4950 hc         1 RZ8       0.036367
     38 H6'B        12.3780    -0.8620    -6.0050 hc         1 RZ8       0.036367
     39 H3S3        -0.1530     2.0360    -0.8250 hn         1 RZ8       0.492800
     40 C7           6.0100     0.0070     0.0010 c          1 RZ8       0.649700
@<TRIPOS>BOND
     1     7     1 1
     2    15     1 1
     3    11     1 2
     4     1    13 2
     5    10     2 1
     6     2    40 1
     7     2    19 1
     8     3    40 2
     9    40     4 1
    10     4     6 ar
    11     4     8 ar
    12     6     5 ar
    13     5     7 ar
    14     5    20 1
    15     6    21 1
    16     9     7 ar
    17     8     9 ar
    18     8    22 1
    19     9    23 1
    20    10    12 1
    21    10    24 1
    22    10    25 1
    23    12    14 1
    24    12    26 1
    25    12    27 1
    26    16    14 1
    27    14    28 1
    28    14    29 1
    29    15    30 1
    30    15    31 1
    31    16    17 1
    32    16    32 1
    33    16    33 1
    34    18    17 1
    35    17    34 1
    36    17    35 1
    37    18    36 1
    38    18    37 1
    39    18    38 1
    40    39    15 1
@<TRIPOS>SUBSTRUCTURE
     1 RZ8         1 TEMP              0 ****  ****    0 ROOT
