@<TRIPOS>MOLECULE
RZD
   58    60     1     0     0
SMALL
bcc


@<TRIPOS>ATOM
      1 P            0.0000     0.0000     0.0000 p5         1 RZD       0.681900
      2 C1          -1.4580    -4.5480    -5.8990 c3         1 RZD       0.055500
      3 N1          -1.3380    -4.4100    -4.4250 n3         1 RZD      -0.502600
      4 C2          -0.4000    -5.4700    -3.9950 c3         1 RZD       0.098800
      5 O2           1.6660    -3.4530    -2.7990 o          1 RZD      -0.665100
      6 C3          -0.4680    -6.5890    -5.0510 c3         1 RZD      -0.032400
      7 N3          -7.7760    -2.6430   -10.8450 na         1 RZD       0.345600
      8 C4          -1.4740    -6.0830    -6.1110 c3         1 RZD      -0.022400
      9 N4          -0.2730    -3.9780    -1.8560 ns         1 RZD      -0.137900
     10 C5          -0.8330    -3.0790    -4.0600 c3         1 RZD       0.107800
     11 C7          -4.2920    -3.3510    -8.1780 c3         1 RZD       0.052000
     12 C8          -4.3860    -3.5090    -9.6970 c3         1 RZD       0.057800
     13 C9          -0.9580    -2.8840    -2.5470 c3         1 RZD      -0.001300
     14 C10         -0.3190    -1.5520    -2.1520 c3         1 RZD       0.250400
     15 C12          1.7500    -5.3050    -1.3390 c3         1 RZD      -0.076100
     16 O1P          1.6100     0.0000     0.0000 o          1 RZD      -0.736833
     17 C21         -5.6710    -2.8910   -10.1860 cc         1 RZD      -0.138400
     18 C22         -6.8310    -3.5300   -10.4050 cd         1 RZD      -0.286100
     19 C23         -7.2330    -1.3800   -10.9230 ca         1 RZD      -0.221200
     20 C24         -5.8900    -1.4810   -10.5140 ca         1 RZD      -0.090800
     21 C25         -5.0820    -0.3420   -10.4920 ca         1 RZD      -0.050000
     22 C26         -5.6000     0.8650   -10.8690 ca         1 RZD      -0.129000
     23 C27         -6.9240     0.9690   -11.2730 ca         1 RZD      -0.094000
     24 C28         -7.7390    -0.1420   -11.3020 ca         1 RZD      -0.129000
     25 O2P         -0.5360     0.0000     1.5180 o          1 RZD      -0.736833
     26 O3P         -0.4920     1.2090    -0.6970 o          1 RZD      -0.736833
     27 O4P         -0.5370    -1.3130    -0.7600 os         1 RZD      -0.484200
     28 H1          -0.6010    -4.1050    -6.3920 h1         1 RZD       0.025700
     29 H2          -0.6990    -5.8570    -3.0280 h1         1 RZD       0.041200
     30 H2A          0.6070    -5.0720    -3.9440 h1         1 RZD       0.041200
     31 HN2         -2.3890    -4.3330    -8.3580 hn         1 RZD       0.165500
     32 H3           0.5060    -6.7400    -5.5010 hc         1 RZD       0.004700
     33 H3A         -0.8270    -7.5070    -4.6020 hc         1 RZD       0.004700
     34 H4          -1.1350    -6.3340    -7.1090 hc         1 RZD       0.009200
     35 H4A         -2.4620    -6.4850    -5.9220 hc         1 RZD       0.009200
     36 HN4         -0.7730    -4.5440    -1.1990 hn         1 RZD       0.157500
     37 H5           0.2070    -2.9960    -4.3510 h1         1 RZD       0.037200
     38 H5A         -1.4130    -2.3210    -4.5710 h1         1 RZD       0.037200
     39 H7          -4.3070    -2.2990    -7.9220 h1         1 RZD       0.029700
     40 H7A         -5.1320    -3.8490    -7.7100 h1         1 RZD       0.029700
     41 H8          -3.5450    -3.0110   -10.1650 hc         1 RZD       0.010200
     42 H8A         -4.3710    -4.5610    -9.9530 hc         1 RZD       0.010200
     43 H9          -2.0040    -2.8790    -2.2690 h1         1 RZD       0.041700
     44 H10         -0.7660    -0.7520    -2.7300 h1         1 RZD      -0.001300
     45 H10A         0.7450    -1.5880    -2.3500 h1         1 RZD      -0.001300
     46 H12          2.4850    -5.7470    -2.0010 hc         1 RZD       0.008700
     47 H12A         1.0160    -6.0530    -1.0630 hc         1 RZD       0.008700
     48 H12B         2.2430    -4.9360    -0.4470 hc         1 RZD       0.008700
     49 H22         -6.9950    -4.5900   -10.2550 h4         1 RZD       0.137000
     50 H25         -4.0480    -0.4150   -10.1780 ha         1 RZD       0.106000
     51 H26         -4.9730     1.7480   -10.8520 ha         1 RZD       0.101000
     52 H27         -7.3200     1.9320   -11.5680 ha         1 RZD       0.092000
     53 H28         -8.7710    -0.0500   -11.6190 ha         1 RZD       0.090000
     54 C11          1.0460    -4.1790    -2.0510 c          1 RZD       0.572100
     55 C6          -2.7430    -3.9320    -6.3890 c          1 RZD       0.572100
     56 O1          -3.5070    -3.4160    -5.6000 o          1 RZD      -0.597100
     57 N2          -3.0420    -3.9520    -7.7020 ns         1 RZD      -0.231900
     58 HN3         -8.7210    -2.8770   -11.0770 hn         1 RZD       0.105700
@<TRIPOS>BOND
     1     1    16 1   
     2     1    25 1   
     3     1    26 1   
     4     1    27 1   
     5     2     3 1   
     6     2     8 1   
     7     2    28 1   
     8     2    55 1   
     9     3     4 1   
    10     3    10 1   
    11     4     6 1   
    12     4    29 1   
    13     4    30 1   
    14     5    54 2   
    15     6     8 1   
    16     6    32 1   
    17     6    33 1   
    18     7    18 1   
    19     7    19 1   
    20     7    58 1   
    21     8    34 1   
    22     8    35 1   
    23     9    13 1   
    24     9    36 1   
    25     9    54 1   
    26    10    13 1   
    27    10    37 1   
    28    10    38 1   
    29    11    12 1   
    30    11    39 1   
    31    11    40 1   
    32    11    57 1   
    33    12    17 1   
    34    12    41 1   
    35    12    42 1   
    36    13    14 1   
    37    13    43 1   
    38    14    27 1   
    39    14    44 1   
    40    14    45 1   
    41    15    46 1   
    42    15    47 1   
    43    15    48 1   
    44    15    54 1   
    45    17    18 2   
    46    17    20 1   
    47    18    49 1   
    48    19    20 ar  
    49    19    24 ar  
    50    20    21 ar  
    51    21    22 ar  
    52    21    50 1   
    53    22    23 ar  
    54    22    51 1   
    55    23    24 ar  
    56    23    52 1   
    57    24    53 1   
    58    31    57 1   
    59    55    56 2   
    60    55    57 1   
@<TRIPOS>SUBSTRUCTURE
     1 RZD         1 TEMP              0 ****  ****    0 ROOT
