@<TRIPOS>MOLECULE
molecule
   58    60     1     0     0
SMALL
bcc


@<TRIPOS>ATOM
      1 P            0.0000     0.0000     0.0000 p5         1 RZD       1.182900
      2 C1          -1.4580    -4.5480    -5.8990 c3         1 RZD       0.080500
      3 N1          -1.3380    -4.4100    -4.4250 n3         1 RZD      -0.674600
      4 C2          -0.4000    -5.4700    -3.9950 c3         1 RZD       0.143800
      5 O2           1.6660    -3.4530    -2.7990 o          1 RZD      -0.624100
      6 C3          -0.4680    -6.5890    -5.0510 c3         1 RZD      -0.099400
      7 N3          -7.7760    -2.6430   -10.8450 na         1 RZD      -0.187400
      8 C4          -1.4740    -6.0830    -6.1110 c3         1 RZD      -0.077400
      9 N4          -0.2730    -3.9780    -1.8560 ns         1 RZD      -0.550900
     10 C5          -0.8330    -3.0790    -4.0600 c3         1 RZD       0.124800
     11 C7          -4.2920    -3.3510    -8.1780 c3         1 RZD       0.117000
     12 C8          -4.3860    -3.5090    -9.6970 c3         1 RZD      -0.023200
     13 C9          -0.9580    -2.8840    -2.5470 c3         1 RZD       0.114700
     14 C10         -0.3190    -1.5520    -2.1520 c3         1 RZD       0.199400
     15 C12          1.7500    -5.3050    -1.3390 c3         1 RZD      -0.172100
     16 O1P          1.6100     0.0000     0.0000 o          1 RZD      -0.911167
     17 C21         -5.6710    -2.8910   -10.1860 cc         1 RZD      -0.141400
     18 C22         -6.8310    -3.5300   -10.4050 cd         1 RZD      -0.104100
     19 C23         -7.2330    -1.3800   -10.9230 ca         1 RZD      -0.039200
     20 C24         -5.8900    -1.4810   -10.5140 ca         1 RZD      -0.095800
     21 C25         -5.0820    -0.3420   -10.4920 ca         1 RZD      -0.068000
     22 C26         -5.6000     0.8650   -10.8690 ca         1 RZD      -0.157000
     23 C27         -6.9240     0.9690   -11.2730 ca         1 RZD      -0.108000
     24 C28         -7.7390    -0.1420   -11.3020 ca         1 RZD      -0.152000
     25 O2P         -0.5360     0.0000     1.5180 o          1 RZD      -0.911167
     26 O3P         -0.4920     1.2090    -0.6970 o          1 RZD      -0.911167
     27 O4P         -0.5370    -1.3130    -0.7600 os         1 RZD      -0.582200
     28 H1          -0.6010    -4.1050    -6.3920 h1         1 RZD       0.045700
     29 H2          -0.6990    -5.8570    -3.0280 h1         1 RZD       0.060200
     30 H2A          0.6070    -5.0720    -3.9440 h1         1 RZD       0.060200
     31 HN2         -2.3890    -4.3330    -8.3580 hn         1 RZD       0.300500
     32 H3           0.5060    -6.7400    -5.5010 hc         1 RZD       0.033700
     33 H3A         -0.8270    -7.5070    -4.6020 hc         1 RZD       0.033700
     34 H4          -1.1350    -6.3340    -7.1090 hc         1 RZD       0.038200
     35 H4A         -2.4620    -6.4850    -5.9220 hc         1 RZD       0.038200
     36 HN4         -0.7730    -4.5440    -1.1990 hn         1 RZD       0.304500
     37 H5           0.2070    -2.9960    -4.3510 h1         1 RZD       0.057200
     38 H5A         -1.4130    -2.3210    -4.5710 h1         1 RZD       0.057200
     39 H7          -4.3070    -2.2990    -7.9220 h1         1 RZD       0.057700
     40 H7A         -5.1320    -3.8490    -7.7100 h1         1 RZD       0.057700
     41 H8          -3.5450    -3.0110   -10.1650 hc         1 RZD       0.044200
     42 H8A         -4.3710    -4.5610    -9.9530 hc         1 RZD       0.044200
     43 H9          -2.0040    -2.8790    -2.2690 h1         1 RZD       0.072700
     44 H10         -0.7660    -0.7520    -2.7300 h1         1 RZD       0.034200
     45 H10A         0.7450    -1.5880    -2.3500 h1         1 RZD       0.034200
     46 H12          2.4850    -5.7470    -2.0010 hc         1 RZD       0.044700
     47 H12A         1.0160    -6.0530    -1.0630 hc         1 RZD       0.044700
     48 H12B         2.2430    -4.9360    -0.4470 hc         1 RZD       0.044700
     49 H22         -6.9950    -4.5900   -10.2550 h4         1 RZD       0.163000
     50 H25         -4.0480    -0.4150   -10.1780 ha         1 RZD       0.139000
     51 H26         -4.9730     1.7480   -10.8520 ha         1 RZD       0.131000
     52 H27         -7.3200     1.9320   -11.5680 ha         1 RZD       0.124000
     53 H28         -8.7710    -0.0500   -11.6190 ha         1 RZD       0.117000
     54 C11          1.0460    -4.1790    -2.0510 c          1 RZD       0.663100
     55 C6          -2.7430    -3.9320    -6.3890 c          1 RZD       0.660100
     56 O1          -3.5070    -3.4160    -5.6000 o          1 RZD      -0.561100
     57 N2          -3.0420    -3.9520    -7.7020 ns         1 RZD      -0.607900
     58 HN3         -8.7210    -2.8770   -11.0770 hn         1 RZD       0.289700
@<TRIPOS>BOND
     1     1    16 1
     2     1    25 1
     3     1    26 1
     4     1    27 1
     5     2     3 1
     6     2     8 1
     7     2    55 1
     8     3     4 1
     9     3    10 1
    10    56    55 2
    11     4     6 1
    12    57    55 1
    13    57    11 1
    14     5    54 2
    15     6     8 1
    16     7    18 1
    17     7    19 1
    18     9    13 1
    19     9    54 1
    20    10    13 1
    21    11    12 1
    22    12    17 1
    23    13    14 1
    24    14    27 1
    25    54    15 1
    26    17    18 2
    27    17    20 1
    28    19    20 ar
    29    19    24 ar
    30    20    21 ar
    31    21    22 ar
    32    22    23 ar
    33    23    24 ar
    34     2    28 1
    35     4    29 1
    36     4    30 1
    37    57    31 1
    38     6    32 1
    39     6    33 1
    40     7    58 1
    41     8    34 1
    42     8    35 1
    43     9    36 1
    44    10    37 1
    45    10    38 1
    46    11    39 1
    47    11    40 1
    48    12    41 1
    49    12    42 1
    50    13    43 1
    51    14    44 1
    52    14    45 1
    53    15    46 1
    54    15    47 1
    55    15    48 1
    56    18    49 1
    57    21    50 1
    58    22    51 1
    59    23    52 1
    60    24    53 1
@<TRIPOS>SUBSTRUCTURE
     1 RZD         1 TEMP              0 ****  ****    0 ROOT
