@<TRIPOS>MOLECULE
molecule
   34    35     1     0     0
SMALL
bcc


@<TRIPOS>ATOM
      1 N1           0.0000     0.0000     0.0000 na         1 RZH      -0.156400
      2 C1           1.7910     0.0030    -1.3450 ca         1 RZH      -0.093800
      3 C2           1.3770     0.0000     0.0000 ca         1 RZH      -0.021200
      4 C3           0.5650     0.0040    -2.1460 cc         1 RZH      -0.215400
      5 C4          -0.4660     0.0020    -1.2860 cd         1 RZH      -0.007300
      6 C5           2.3340     0.0000     1.0100 ca         1 RZH      -0.071300
      7 C6           3.1520     0.0040    -1.6550 ca         1 RZH      -0.085000
      8 C7           3.6730     0.0010     0.6880 ca         1 RZH      -0.079000
      9 C8           4.0830     0.0040    -0.6390 ca         1 RZH      -0.021900
     10 Br           5.9280     0.0050    -1.0540 br         1 RZH      -0.070100
     11 C9           0.4770     0.0070    -3.6510 c3         1 RZH      -0.009200
     12 C10         -1.9210     0.0010    -1.6800 c3         1 RZH      -0.042900
     13 N2           0.3630    -1.4320    -5.6290 nz         1 RZH      -0.812600
     14 C11          1.9050    -0.0030     2.4540 c3         1 RZH      -0.043100
     15 C12          0.4490    -1.4340    -4.1620 c3         1 RZH       0.088800
     16 C13          1.6400    -1.4410     2.9060 c3         1 RZH      -0.091100
     17 H1          -0.5750    -0.0020     0.8190 hn         1 RZH       0.315700
     18 H6           3.4750     0.0060    -2.6900 ha         1 RZH       0.129000
     19 H91C         1.3390     0.5190    -4.0620 hc         1 RZH       0.064200
     20 H92C        -0.4270     0.5180    -3.9580 hc         1 RZH       0.064200
     21 H101        -2.1820    -0.9650    -2.0940 hc         1 RZH       0.057033
     22 H102        -2.5310     0.1960    -0.8070 hc         1 RZH       0.057033
     23 H103        -2.0940     0.7710    -2.4220 hc         1 RZH       0.057033
     24 H7           4.4140     0.0010     1.4770 ha         1 RZH       0.161000
     25 H111         0.9990     0.5830     2.5630 hc         1 RZH       0.055700
     26 H112         2.6890     0.4290     3.0650 hc         1 RZH       0.055700
     27 H121         1.3530    -1.9450    -3.8540 hx         1 RZH       0.114700
     28 H122        -0.4130    -1.9460    -3.7510 hx         1 RZH       0.114700
     29 H21N         0.4500    -2.3700    -5.9690 hn         1 RZH       0.454800
     30 H22N        -0.5200    -1.0550    -5.9110 hn         1 RZH       0.454800
     31 H131         0.5890    -1.6720     2.7750 hc         1 RZH       0.041367
     32 H132         1.9060    -1.5460     3.9500 hc         1 RZH       0.041367
     33 H133         2.2360    -2.1210     2.3110 hc         1 RZH       0.041367
     34 H23          1.1140    -0.8890    -6.0060 hn         1 RZH       0.454800
@<TRIPOS>BOND
     1     1     3 1
     2     1     5 1
     3     2     3 ar
     4     2     4 1
     5     2     7 ar
     6     3     6 ar
     7     4     5 2
     8     4    11 1
     9     5    12 1
    10     6     8 ar
    11     6    14 1
    12     7     9 ar
    13     8     9 ar
    14     9    10 1
    15    11    15 1
    16    13    15 1
    17    14    16 1
    18     1    17 1
    19     7    18 1
    20    11    19 1
    21    11    20 1
    22    12    21 1
    23    12    22 1
    24    12    23 1
    25     8    24 1
    26    14    25 1
    27    14    26 1
    28    15    27 1
    29    15    28 1
    30    13    29 1
    31    13    30 1
    32    16    31 1
    33    16    32 1
    34    16    33 1
    35    34    13 1
@<TRIPOS>SUBSTRUCTURE
     1 RZH         1 TEMP              0 ****  ****    0 ROOT
