@<TRIPOS>MOLECULE
molecule
   36    37     1     0     0
SMALL
bcc


@<TRIPOS>ATOM
      1 C1           0.0000     0.0000     0.0000 ca         1 RZW      -0.077800
      2 C2           1.4080     0.0000     0.0000 ca         1 RZW       0.048600
      3 C3           2.0960     0.0000     1.2120 ca         1 RZW       0.125100
      4 C4           1.3950    -0.0000     2.4040 ca         1 RZW      -0.264000
      5 C5           0.0050     0.0000     2.4100 ca         1 RZW       0.123100
      6 C6          -0.6990    -0.0000     1.2160 ca         1 RZW       0.091100
      7 N7           2.0890    -0.0000    -1.2030 n          1 RZW      -0.330000
      8 C8           1.4270    -0.0010    -2.3730 c          1 RZW       0.693700
      9 C9           0.0180    -0.0000    -2.4250 cc         1 RZW      -0.236200
     10 C10         -0.7100    -0.0060    -1.2790 cd         1 RZW       0.010600
     11 C11         -2.2150    -0.0060    -1.3240 c3         1 RZW      -0.058900
     12 O12          2.0600    -0.0010    -3.4140 o          1 RZW      -0.654500
     13 C13          3.5550    -0.0000    -1.2030 c3         1 RZW       0.087300
     14 O14          3.4560    -0.0010     1.2210 os         1 RZW      -0.324900
     15 C15          4.0950    -0.0000     2.4990 c3         1 RZW       0.122700
     16 O16         -0.6670     0.0000     3.5920 os         1 RZW      -0.313900
     17 C17          0.1200    -0.0000     4.7860 c3         1 RZW       0.126700
     18 O18         -2.0580     0.0010     1.2240 os         1 RZW      -0.334900
     19 C19         -2.7060     1.2640     1.3850 c3         1 RZW       0.129700
     20 H4           1.9350     0.0000     3.3430 ha         1 RZW       0.148000
     21 H9          -0.4860    -0.0000    -3.3830 ha         1 RZW       0.165000
     22 H11         -2.5850     0.9730    -1.0450 hc         1 RZW       0.056700
     23 H11A        -2.5470    -0.2460    -2.3270 hc         1 RZW       0.056700
     24 H11B        -2.5970    -0.7470    -0.6310 hc         1 RZW       0.056700
     25 H13          3.9160     0.0000    -2.2240 h1         1 RZW       0.061033
     26 H13A         3.9150     0.8840    -0.6920 h1         1 RZW       0.061033
     27 H13B         3.9160    -0.8850    -0.6920 h1         1 RZW       0.061033
     28 H15          5.1700    -0.0000     2.3650 h1         1 RZW       0.043367
     29 H15A         3.8000    -0.8840     3.0510 h1         1 RZW       0.043367
     30 H15B         3.8000     0.8850     3.0500 h1         1 RZW       0.043367
     31 H17          0.7450    -0.8850     4.8060 h1         1 RZW       0.041700
     32 H17A        -0.5340    -0.0010     5.6490 h1         1 RZW       0.041700
     33 H17B         0.7450     0.8840     4.8060 h1         1 RZW       0.041700
     34 H19         -3.7170     1.2030     1.0010 h1         1 RZW       0.038367
     35 H19A        -2.7350     1.5240     2.4360 h1         1 RZW       0.038367
     36 H19B        -2.1580     2.0230     0.8400 h1         1 RZW       0.038367
@<TRIPOS>BOND
     1    10     1 1
     2     1     6 ar
     3     1     2 ar
     4     7     2 1
     5     2     3 ar
     6     3     4 ar
     7     3    14 1
     8     5     4 ar
     9     4    20 1
    10     6     5 ar
    11     5    16 1
    12    18     6 1
    13     8     7 1
    14     7    13 1
    15     9     8 1
    16    12     8 2
    17     9    10 2
    18     9    21 1
    19    11    10 1
    20    11    22 1
    21    11    23 1
    22    11    24 1
    23    13    25 1
    24    13    26 1
    25    13    27 1
    26    14    15 1
    27    15    28 1
    28    15    29 1
    29    15    30 1
    30    16    17 1
    31    17    31 1
    32    17    32 1
    33    17    33 1
    34    18    19 1
    35    19    34 1
    36    19    35 1
    37    19    36 1
@<TRIPOS>SUBSTRUCTURE
     1 RZW         1 TEMP              0 ****  ****    0 ROOT
