@<TRIPOS>MOLECULE
RZX
   46    48     1     0     0
SMALL
bcc


@<TRIPOS>ATOM
      1 C1          0.4090   -1.7030    0.7750 ca        1 RZX     -0.061000
      2 C2          1.7040   -1.1680    0.6570 ca        1 RZX      0.050400
      3 C3          1.9620    0.1850    1.1260 ca        1 RZX     -0.063200
      4 C4          0.9430    0.9660    1.6960 ca        1 RZX     -0.136000
      5 C5         -0.3140    0.3970    1.7910 ca        1 RZX     -0.104000
      6 C6         -0.5760   -0.9130    1.3390 ca        1 RZX     -0.158000
      7 N7          3.3080    0.4220    0.8730 na        1 RZX     -0.228300
      8 C8          3.8290   -0.7480    0.2850 cc        1 RZX      0.307100
      9 N9          2.8900   -1.7100    0.1430 nd        1 RZX     -0.524100
     10 S10         5.5110   -0.9520   -0.1240 sx        1 RZX      0.442300
     11 C11         5.3440   -0.9840   -1.8820 c3        1 RZX     -0.155400
     12 C12         6.5770   -1.5230   -2.5300 ca        1 RZX      0.454600
     13 N13         7.5540   -2.0150   -1.7210 nb        1 RZX     -0.723000
     14 C14         8.6630   -2.4950   -2.3000 ca        1 RZX      0.442200
     15 C15         8.8740   -2.5230   -3.6900 ca        1 RZX     -0.326300
     16 C16         7.8620   -2.0170   -4.5140 ca        1 RZX      0.169100
     17 C17         6.6750   -1.5000   -3.9380 ca        1 RZX     -0.199600
     18 O18         6.0980    0.3670    0.1870 o         1 RZX     -0.514200
     19 O19         7.9260   -1.9780   -5.8880 os        1 RZX     -0.320900
     20 C20         9.1270   -2.5000   -6.4760 c3        1 RZX      0.129400
     21 C21         8.9460   -2.3430   -7.9740 c3        1 RZX     -0.091400
     22 C22        10.1780   -2.8640   -8.6910 c3        1 RZX      0.130400
     23 O23         9.9360   -2.6910  -10.0850 os        1 RZX     -0.418600
     24 C24        11.0190   -3.1380  -10.8840 c3        1 RZX      0.115700
     25 C25         5.5850   -0.9530   -4.7710 c3        1 RZX     -0.045800
     26 H1          0.1980   -2.7240    0.4260 ha        1 RZX      0.147000
     27 H4          1.1410    1.9860    2.0500 ha        1 RZX      0.139000
     28 H5         -1.1390    0.9790    2.2320 ha        1 RZX      0.133000
     29 H6         -1.5970   -1.3110    1.4420 ha        1 RZX      0.134000
     30 HN7         3.8290    1.2370    1.0770 hn        1 RZX      0.326700
     31 H11         4.4780   -1.6380   -2.1690 h1        1 RZX      0.111700
     32 H11A        5.1380    0.0340   -2.3030 h1        1 RZX      0.111700
     33 H14         9.4340   -2.8820   -1.6090 h4        1 RZX      0.025100
     34 H15         9.8080   -2.9310   -4.0930 ha        1 RZX      0.149000
     35 H20         9.2430   -3.5790   -6.1910 h1        1 RZX      0.043200
     36 H20A       10.0080   -1.9130   -6.1080 h1        1 RZX      0.043200
     37 H21         8.0390   -2.9070   -8.3140 hc        1 RZX      0.073700
     38 H21A        8.7820   -1.2650   -8.2310 hc        1 RZX      0.073700
     39 H22        10.3450   -3.9520   -8.4690 h1        1 RZX      0.027200
     40 H22A       11.0940   -2.2860   -8.3930 h1        1 RZX      0.027200
     41 H24        11.2010   -4.2290  -10.7270 h1        1 RZX      0.034700
     42 H24A       10.6880   -2.9410  -11.9340 h1        1 RZX      0.034700
     43 H24B       11.9470   -2.5590  -10.6490 h1        1 RZX      0.034700
     44 H25         5.7660   -1.1460   -5.8570 hc        1 RZX      0.053033
     45 H25A        5.5030    0.1540   -4.6180 hc        1 RZX      0.053033
     46 H25B        4.6060   -1.4170   -4.4860 hc        1 RZX      0.053033
@<TRIPOS>BOND
     1    1    2 ar  
     2    1    6 ar  
     3    1   26 1   
     4    2    3 ar  
     5    2    9 1   
     6    3    4 ar  
     7    3    7 1   
     8    4    5 ar  
     9    4   27 1   
    10    5    6 ar  
    11    5   28 1   
    12    6   29 1   
    13    7    8 1   
    14    7   30 1   
    15    8    9 2   
    16    8   10 1   
    17   10   11 1   
    18   10   18 2   
    19   11   12 1   
    20   11   31 1   
    21   11   32 1   
    22   12   13 ar  
    23   12   17 ar  
    24   13   14 ar  
    25   14   15 ar  
    26   14   33 1   
    27   15   16 ar  
    28   15   34 1   
    29   16   17 ar  
    30   16   19 1   
    31   17   25 1   
    32   19   20 1   
    33   20   21 1   
    34   20   35 1   
    35   20   36 1   
    36   21   22 1   
    37   21   37 1   
    38   21   38 1   
    39   22   23 1   
    40   22   39 1   
    41   22   40 1   
    42   23   24 1   
    43   24   41 1   
    44   24   42 1   
    45   24   43 1   
    46   25   44 1   
    47   25   45 1   
    48   25   46 1   
@<TRIPOS>SUBSTRUCTURE
     1 RZX         1 TEMP              0 ****  ****    0 ROOT
