@<TRIPOS>MOLECULE
molecule
   46    48     1     0     0
SMALL
bcc


@<TRIPOS>ATOM
      1 C1           0.0000     0.0000     0.0000 ca         1 RZX      -0.055000
      2 C2           1.3970     0.0000     0.0000 ca         1 RZX       0.073400
      3 C3           2.0880     0.0000     1.2240 ca         1 RZX      -0.078200
      4 C4           1.3790    -0.0010     2.4170 ca         1 RZX      -0.137000
      5 C5           0.0010    -0.0020     2.3920 ca         1 RZX      -0.101000
      6 C6          -0.6810    -0.0010     1.1840 ca         1 RZX      -0.153000
      7 N7           3.4310    -0.0000     0.9040 na         1 RZX      -0.234300
      8 C8           3.5230     0.0010    -0.4550 cc         1 RZX       0.326100
      9 N9           2.3340     0.0010    -0.9830 nd         1 RZX      -0.525100
     10 S10          5.0310     0.0020    -1.3640 sx         1 RZX       0.404300
     11 C11          5.3820    -1.7650    -1.5750 c3         1 RZX      -0.137400
     12 C12          6.6650    -1.9350    -2.3470 ca         1 RZX       0.459600
     13 N13          7.8110    -2.0070    -1.7000 nb         1 RZX      -0.727000
     14 C14          8.9610    -2.1560    -2.3310 ca         1 RZX       0.448200
     15 C15          9.0060    -2.2400    -3.7070 ca         1 RZX      -0.343300
     16 C16          7.8160    -2.1670    -4.4290 ca         1 RZX       0.177100
     17 C17          6.6250    -2.0160    -3.7250 ca         1 RZX      -0.209600
     18 O18          4.6520     0.5620    -2.6130 o          1 RZX      -0.464200
     19 O19          7.8190    -2.2460    -5.7840 os         1 RZX      -0.314900
     20 C20          9.0870    -2.4050    -6.4230 c3         1 RZX       0.138400
     21 C21          8.8910    -2.4750    -7.9380 c3         1 RZX      -0.083400
     22 C22         10.2490    -2.6460    -8.6210 c3         1 RZX       0.141400
     23 O23         10.0650    -2.7110   -10.0370 os         1 RZX      -0.425600
     24 C24         11.2790    -2.8700   -10.7740 c3         1 RZX       0.130700
     25 C25          5.3100    -1.9380    -4.4570 c3         1 RZX      -0.051800
     26 H1          -0.5420     0.0010    -0.9380 ha         1 RZX       0.145000
     27 H4           1.9060    -0.0020     3.3630 ha         1 RZX       0.127000
     28 H5          -0.5540    -0.0030     3.3230 ha         1 RZX       0.134000
     29 H6          -1.7650    -0.0020     1.1790 ha         1 RZX       0.135000
     30 HN7          4.1950    -0.0000     1.5500 hn         1 RZX       0.303700
     31 H11          4.5690    -2.2320    -2.1180 h1         1 RZX       0.100700
     32 H11A         5.4820    -2.2320    -0.6020 h1         1 RZX       0.100700
     33 H14          9.8810    -2.2110    -1.7610 h4         1 RZX       0.023100
     34 H15          9.9530    -2.3590    -4.2190 ha         1 RZX       0.141000
     35 H20          9.7220    -1.5620    -6.1790 h1         1 RZX       0.037200
     36 H20A         9.5530    -3.3200    -6.0770 h1         1 RZX       0.037200
     37 H21          8.2550    -3.3170    -8.1820 hc         1 RZX       0.070200
     38 H21A         8.4250    -1.5600    -8.2840 hc         1 RZX       0.070200
     39 H22         10.7150    -3.5610    -8.2750 h1         1 RZX       0.023200
     40 H22A        10.8850    -1.8030    -8.3780 h1         1 RZX       0.023200
     41 H24         11.7660    -3.7900   -10.4730 h1         1 RZX       0.031367
     42 H24A        11.9350    -2.0320   -10.5750 h1         1 RZX       0.031367
     43 H24B        11.0560    -2.9110   -11.8340 h1         1 RZX       0.031367
     44 H25          4.5670    -2.5250    -3.9290 hc         1 RZX       0.059367
     45 H25A         5.4310    -2.3280    -5.4600 hc         1 RZX       0.059367
     46 H25B         4.9850    -0.9060    -4.5070 hc         1 RZX       0.059367
@<TRIPOS>BOND
     1     1     2 ar
     2     1     6 ar
     3     2     3 ar
     4     2     9 1
     5     3     4 ar
     6     3     7 1
     7     4     5 ar
     8     5     6 ar
     9     7     8 1
    10     8     9 2
    11     8    10 1
    12    10    11 1
    13    10    18 2
    14    11    12 1
    15    12    13 ar
    16    12    17 ar
    17    13    14 ar
    18    14    15 ar
    19    15    16 ar
    20    16    17 ar
    21    16    19 1
    22    17    25 1
    23    19    20 1
    24    20    21 1
    25    21    22 1
    26    22    23 1
    27    23    24 1
    28     1    26 1
    29     4    27 1
    30     5    28 1
    31     6    29 1
    32     7    30 1
    33    11    31 1
    34    11    32 1
    35    14    33 1
    36    15    34 1
    37    20    35 1
    38    20    36 1
    39    21    37 1
    40    21    38 1
    41    22    39 1
    42    22    40 1
    43    24    41 1
    44    24    42 1
    45    24    43 1
    46    25    44 1
    47    25    45 1
    48    25    46 1
@<TRIPOS>SUBSTRUCTURE
     1 RZX         1 TEMP              0 ****  ****    0 ROOT
