@<TRIPOS>MOLECULE
molecule
   86    87     1     0     0
SMALL
bcc


@<TRIPOS>ATOM
      1 C02          0.0000     0.0000     0.0000 c          1 N02       0.751100
      2 C04          2.0800     0.0020     1.2680 c3         1 N02       0.054700
      3 C05          2.2280    -1.4350     1.7740 c3         1 N02      -0.089400
      4 C06          0.8460    -2.0040     2.1050 c3         1 N02      -0.075700
      5 C07          0.9800    -3.4780     2.4910 c3         1 N02      -0.088100
      6 C08          0.2400    -1.2230     3.2730 c3         1 N02      -0.088100
      7 C09          3.4470     0.6020     1.0600 c          1 N02       0.664100
      8 C11          5.6310     1.2920     1.8920 c3         1 N02       0.109700
      9 C12          6.1510     1.8490     3.2190 c3         1 N02      -0.089400
     10 C13          5.2790     3.0300     3.6530 c3         1 N02      -0.156700
     11 C14          5.7780     3.6030     4.9610 c          1 N02       0.703500
     12 C16          5.3480     5.4260     3.5870 c3         1 N02       0.093000
     13 C17          5.4130     4.2000     2.6510 c3         1 N02      -0.095400
     14 C19          6.5880     0.2150     1.3800 c3         1 N02      -0.023100
     15 C23         -2.1180    -0.1140    -1.0930 c3         1 N02       0.186800
     16 N03          1.3480     0.0000     0.0000 ns         1 N02      -0.544900
     17 N10          4.3030     0.7080     2.0950 ns         1 N02      -0.568900
     18 N15          5.8120     4.9450     4.8950 ns         1 N02      -0.601900
     19 O01         -0.6070     0.0000     1.0530 o          1 N02      -0.633000
     20 O18          6.1000     2.9460     5.9290 o          1 N02      -0.618500
     21 O21          3.7760     0.9920    -0.0410 o          1 N02      -0.636100
     22 O22         -0.6730     0.0040    -1.1660 os         1 N02      -0.435900
     23 H1           1.5360     0.5880     1.9990 h1         1 N02       0.086700
     24 H2           2.8440    -1.4420     2.6650 hc         1 N02       0.079700
     25 H3           2.6940    -2.0420     1.0080 hc         1 N02       0.079700
     26 H4           0.2020    -1.9150     1.2380 hc         1 N02       0.050700
     27 H5           0.0050    -3.8750     2.7470 hc         1 N02       0.032867
     28 H6           1.3890    -4.0350     1.6570 hc         1 N02       0.032867
     29 H7           1.6420    -3.5690     3.3440 hc         1 N02       0.032867
     30 H8          -0.6790    -1.7020     3.5890 hc         1 N02       0.032867
     31 H9           0.0280    -0.2080     2.9580 hc         1 N02       0.032867
     32 H10          0.9410    -1.2060     4.0990 hc         1 N02       0.032867
     33 H11          5.5650     2.0920     1.1650 h1         1 N02       0.060700
     34 H12          7.1740     2.1820     3.0940 hc         1 N02       0.100200
     35 H13          6.1130     1.0750     3.9750 hc         1 N02       0.100200
     36 H14          4.2420     2.7290     3.7450 hc         1 N02       0.073700
     37 H15          4.3290     5.7850     3.6620 h1         1 N02       0.034700
     38 H16          6.0030     6.2090     3.2240 h1         1 N02       0.034700
     39 H17          6.3640     4.1590     2.1350 hc         1 N02       0.062200
     40 H18          4.5850     4.2050     1.9520 hc         1 N02       0.062200
     41 H19          6.2680    -0.1170     0.4000 h2         1 N02       0.073700
     42 H24          1.8470    -0.0450    -0.8660 hn         1 N02       0.343500
     43 H25          4.0460     0.3520     2.9950 hn         1 N02       0.330500
     44 H26          6.1160     5.5400     5.6400 hn         1 N02       0.325500
     45 S1           6.5850    -1.1920     2.5260 s6         1 N02       1.246800
     46 O2           7.0760    -0.7980     3.8000 o          1 N02      -0.693867
     47 O3           5.3790    -1.9320     2.4020 o          1 N02      -0.693867
     48 O1           7.6570    -2.1260     1.9830 o          1 N02      -0.693867
     49 C1          -2.6900     1.0800    -0.3250 c3         1 N02      -0.109900
     50 C2          -2.2880     2.3770    -1.0340 c3         1 N02       0.114500
     51 N1          -2.7170     2.3010    -2.4370 n          1 N02      -0.477800
     52 C4          -2.2980     1.1460    -3.2420 c3         1 N02       0.114500
     53 C5          -2.7000    -0.1380    -2.5080 c3         1 N02      -0.109900
     54 C6          -2.4880    -1.4100    -0.3690 c3         1 N02      -0.117400
     55 H22         -3.7700     1.0050    -0.2950 hc         1 N02       0.069700
     56 H23         -2.2940     1.0830     0.6830 hc         1 N02       0.069700
     57 H30         -2.7720     3.2180    -0.5520 h1         1 N02       0.066200
     58 H31         -1.2120     2.4960    -0.9900 h1         1 N02       0.066200
     59 C3          -3.4800     3.2730    -2.9750 c          1 N02       0.756100
     60 H34         -2.7880     1.1810    -4.2080 h1         1 N02       0.066200
     61 H35         -1.2230     1.1670    -3.3730 h1         1 N02       0.066200
     62 H36         -3.7800    -0.1990    -2.4530 hc         1 N02       0.069700
     63 H37         -2.3110    -0.9960    -3.0440 hc         1 N02       0.069700
     64 C7          -1.8730    -2.6010    -1.1080 c3         1 N02      -0.095100
     65 O4          -3.8200     4.2240    -2.2990 o          1 N02      -0.626000
     66 O5          -3.8660     3.1910    -4.2630 os         1 N02      -0.438900
     67 C8          -4.6870     4.2730    -4.7750 c3         1 N02       0.177800
     68 C9          -3.9210     5.5930    -4.6580 c3         1 N02      -0.105767
     69 C10         -5.0240     4.0070    -6.2430 c3         1 N02      -0.105767
     70 C15         -5.9810     4.3610    -3.9630 c3         1 N02      -0.105767
     71 H21         -2.1080    -1.3790     0.6450 hc         1 N02       0.067700
     72 H32         -3.5660    -1.5160    -0.3470 hc         1 N02       0.067700
     73 H33         -2.5190    -2.8890    -1.9290 hc         1 N02       0.036700
     74 H38         -0.9010    -2.3230    -1.4960 hc         1 N02       0.036700
     75 H39         -1.7650    -3.4340    -0.4240 hc         1 N02       0.036700
     76 H40         -2.8730     5.4230    -4.8730 hc         1 N02       0.048144
     77 H41         -4.3240     6.3070    -5.3670 hc         1 N02       0.048144
     78 H42         -4.0250     5.9830    -3.6530 hc         1 N02       0.048144
     79 H43         -5.5600     3.0700    -6.3260 hc         1 N02       0.048144
     80 H44         -4.1080     3.9510    -6.8190 hc         1 N02       0.048144
     81 H45         -5.6410     4.8120    -6.6230 hc         1 N02       0.048144
     82 H46         -6.7310     4.8940    -4.5360 hc         1 N02       0.048144
     83 H47         -6.3370     3.3620    -3.7420 hc         1 N02       0.048144
     84 H48         -5.7910     4.8900    -3.0370 hc         1 N02       0.048144
     85 O20          7.9090     0.7550     1.2930 oh         1 N02      -0.563800
     86 H27          8.1790     0.7820     0.3900 ho         1 N02       0.387000
@<TRIPOS>BOND
     1     6     4 1
     2     5     4 1
     3     4     3 1
     4     3     2 1
     5    16     2 1
     6    16     1 1
     7    22     1 1
     8    22    15 1
     9     2     7 1
    10     1    19 2
    11     7    21 2
    12     7    17 1
    13    17     8 1
    14     8    14 1
    15     8     9 1
    16    14    85 1
    17     9    10 1
    18    10    13 1
    19    10    11 1
    20    13    12 1
    21    11    20 2
    22    11    18 1
    23    12    18 1
    24     2    23 1
    25     3    24 1
    26     3    25 1
    27     4    26 1
    28     5    27 1
    29     5    28 1
    30     5    29 1
    31     6    30 1
    32     6    31 1
    33     6    32 1
    34     8    33 1
    35     9    34 1
    36     9    35 1
    37    10    36 1
    38    12    37 1
    39    12    38 1
    40    13    39 1
    41    13    40 1
    42    14    41 1
    43    16    42 1
    44    17    43 1
    45    18    44 1
    46    85    86 1
    47    14    45 1
    48    45    46 1
    49    45    47 1
    50    45    48 1
    51    15    49 1
    52    49    50 1
    53    50    51 1
    54    51    52 1
    55    52    53 1
    56    53    15 1
    57    15    54 1
    58    49    55 1
    59    49    56 1
    60    50    57 1
    61    50    58 1
    62    51    59 1
    63    52    60 1
    64    52    61 1
    65    53    62 1
    66    53    63 1
    67    54    64 1
    68    59    65 2
    69    59    66 1
    70    66    67 1
    71    67    68 1
    72    67    69 1
    73    67    70 1
    74    54    71 1
    75    54    72 1
    76    64    73 1
    77    64    74 1
    78    64    75 1
    79    68    76 1
    80    68    77 1
    81    68    78 1
    82    69    79 1
    83    69    80 1
    84    69    81 1
    85    70    82 1
    86    70    83 1
    87    70    84 1
@<TRIPOS>SUBSTRUCTURE
     1 N02         1 TEMP              0 ****  ****    0 ROOT
