@<TRIPOS>MOLECULE
N02
   86    87     1     0     0
SMALL
bcc


@<TRIPOS>ATOM
      1 C02          0.0000     0.0000     0.0000 c          1 N02       0.675100
      2 C04          2.0800     0.0020     1.2680 c3         1 N02      -0.059300
      3 C05          2.2280    -1.4350     1.7740 c3         1 N02      -0.048400
      4 C06          0.8460    -2.0040     2.1050 c3         1 N02      -0.068700
      5 C07          0.9800    -3.4780     2.4910 c3         1 N02      -0.004600
      6 C08          0.2400    -1.2230     3.2730 c3         1 N02      -0.004600
      7 C09          3.4470     0.6020     1.0600 c          1 N02       0.578100
      8 C11          5.6310     1.2920     1.8920 c3         1 N02       0.011700
      9 C12          6.1510     1.8490     3.2190 c3         1 N02      -0.060400
     10 C13          5.2790     3.0300     3.6530 c3         1 N02      -0.132700
     11 C14          5.7780     3.6030     4.9610 c          1 N02       0.626500
     12 C16          5.3480     5.4260     3.5870 c3         1 N02       0.044000
     13 C17          5.4130     4.2000     2.6510 c3         1 N02      -0.039400
     14 C19          6.5880     0.2150     1.3800 c3         1 N02       0.160900
     15 C23         -2.1180    -0.1140    -1.0930 c3         1 N02       0.202800
     16 N03          1.3480     0.0000     0.0000 ns         1 N02      -0.126900
     17 N10          4.3030     0.7080     2.0950 ns         1 N02      -0.153900
     18 N15          5.8120     4.9450     4.8950 ns         1 N02      -0.224900
     19 O01         -0.6070     0.0000     1.0530 o          1 N02      -0.679000
     20 O18          6.1000     2.9460     5.9290 o          1 N02      -0.652500
     21 O21          3.7760     0.9920    -0.0410 o          1 N02      -0.691100
     22 O22         -0.6730     0.0040    -1.1660 os         1 N02      -0.415900
     23 H1           1.5360     0.5880     1.9990 h1         1 N02       0.064700
     24 H2           2.8440    -1.4420     2.6650 hc         1 N02       0.055700
     25 H3           2.6940    -2.0420     1.0080 hc         1 N02       0.055700
     26 H4           0.2020    -1.9150     1.2380 hc         1 N02       0.035700
     27 H5           0.0050    -3.8750     2.7470 hc         1 N02       0.005200
     28 H6           1.3890    -4.0350     1.6570 hc         1 N02       0.005200
     29 H7           1.6420    -3.5690     3.3440 hc         1 N02       0.005200
     30 H8          -0.6790    -1.7020     3.5890 hc         1 N02       0.005200
     31 H9           0.0280    -0.2080     2.9580 hc         1 N02       0.005200
     32 H10          0.9410    -1.2060     4.0990 hc         1 N02       0.005200
     33 H11          5.5650     2.0920     1.1650 h1         1 N02       0.035700
     34 H12          7.1740     2.1820     3.0940 hc         1 N02       0.079200
     35 H13          6.1130     1.0750     3.9750 hc         1 N02       0.079200
     36 H14          4.2420     2.7290     3.7450 hc         1 N02       0.041700
     37 H15          4.3290     5.7850     3.6620 h1         1 N02       0.005200
     38 H16          6.0030     6.2090     3.2240 h1         1 N02       0.005200
     39 H17          6.3640     4.1590     2.1350 hc         1 N02       0.032700
     40 H18          4.5850     4.2050     1.9520 hc         1 N02       0.032700
     41 H19          6.2680    -0.1170     0.4000 h2         1 N02       0.044700
     42 H24          1.8470    -0.0450    -0.8660 hn         1 N02       0.196500
     43 H25          4.0460     0.3520     2.9950 hn         1 N02       0.195500
     44 H26          6.1160     5.5400     5.6400 hn         1 N02       0.184500
     45 S1           6.5850    -1.1920     2.5260 s6         1 N02       0.948800
     46 O2           7.0760    -0.7980     3.8000 o          1 N02      -0.646200
     47 O3           5.3790    -1.9320     2.4020 o          1 N02      -0.646200
     48 O1           7.6570    -2.1260     1.9830 o          1 N02      -0.646200
     49 C1          -2.6900     1.0800    -0.3250 c3         1 N02      -0.075900
     50 C2          -2.2880     2.3770    -1.0340 c3         1 N02       0.054500
     51 N1          -2.7170     2.3010    -2.4370 n          1 N02      -0.133800
     52 C4          -2.2980     1.1460    -3.2420 c3         1 N02       0.054500
     53 C5          -2.7000    -0.1380    -2.5080 c3         1 N02      -0.075900
     54 C6          -2.4880    -1.4100    -0.3690 c3         1 N02      -0.087400
     55 H22         -3.7700     1.0050    -0.2950 hc         1 N02       0.044450
     56 H23         -2.2940     1.0830     0.6830 hc         1 N02       0.044450
     57 H30         -2.7720     3.2180    -0.5520 h1         1 N02       0.036700
     58 H31         -1.2120     2.4960    -0.9900 h1         1 N02       0.036700
     59 C3          -3.4800     3.2730    -2.9750 c          1 N02       0.701100
     60 H34         -2.7880     1.1810    -4.2080 h1         1 N02       0.036700
     61 H35         -1.2230     1.1670    -3.3730 h1         1 N02       0.036700
     62 H36         -3.7800    -0.1990    -2.4530 hc         1 N02       0.044450
     63 H37         -2.3110    -0.9960    -3.0440 hc         1 N02       0.044450
     64 C7          -1.8730    -2.6010    -1.1080 c3         1 N02      -0.002100
     65 O4          -3.8200     4.2240    -2.2990 o          1 N02      -0.672000
     66 O5          -3.8660     3.1910    -4.2630 os         1 N02      -0.419900
     67 C8          -4.6870     4.2730    -4.7750 c3         1 N02       0.194800
     68 C9          -3.9210     5.5930    -4.6580 c3         1 N02      -0.029433
     69 C10         -5.0240     4.0070    -6.2430 c3         1 N02      -0.029433
     70 C15         -5.9810     4.3610    -3.9630 c3         1 N02      -0.029433
     71 H21         -2.1080    -1.3790     0.6450 hc         1 N02       0.046200
     72 H32         -3.5660    -1.5160    -0.3470 hc         1 N02       0.046200
     73 H33         -2.5190    -2.8890    -1.9290 hc         1 N02       0.005700
     74 H38         -0.9010    -2.3230    -1.4960 hc         1 N02       0.005700
     75 H39         -1.7650    -3.4340    -0.4240 hc         1 N02       0.005700
     76 H40         -2.8730     5.4230    -4.8730 hc         1 N02       0.017700
     77 H41         -4.3240     6.3070    -5.3670 hc         1 N02       0.017700
     78 H42         -4.0250     5.9830    -3.6530 hc         1 N02       0.017700
     79 H43         -5.5600     3.0700    -6.3260 hc         1 N02       0.017700
     80 H44         -4.1080     3.9510    -6.8190 hc         1 N02       0.017700
     81 H45         -5.6410     4.8120    -6.6230 hc         1 N02       0.017700
     82 H46         -6.7310     4.8940    -4.5360 hc         1 N02       0.017700
     83 H47         -6.3370     3.3620    -3.7420 hc         1 N02       0.017700
     84 H48         -5.7910     4.8900    -3.0370 hc         1 N02       0.017700
     85 O20          7.9090     0.7550     1.2930 oh         1 N02      -0.535800
     86 H27          8.1790     0.7820     0.3900 ho         1 N02       0.369000
@<TRIPOS>BOND
     1     1    16 1   
     2     1    19 2   
     3     1    22 1   
     4     2     3 1   
     5     2     7 1   
     6     2    16 1   
     7     2    23 1   
     8     3     4 1   
     9     3    24 1   
    10     3    25 1   
    11     4     5 1   
    12     4     6 1   
    13     4    26 1   
    14     5    27 1   
    15     5    28 1   
    16     5    29 1   
    17     6    30 1   
    18     6    31 1   
    19     6    32 1   
    20     7    17 1   
    21     7    21 2   
    22     8     9 1   
    23     8    14 1   
    24     8    17 1   
    25     8    33 1   
    26     9    10 1   
    27     9    34 1   
    28     9    35 1   
    29    10    11 1   
    30    10    13 1   
    31    10    36 1   
    32    11    18 1   
    33    11    20 2   
    34    12    13 1   
    35    12    18 1   
    36    12    37 1   
    37    12    38 1   
    38    13    39 1   
    39    13    40 1   
    40    14    41 1   
    41    14    45 1   
    42    14    85 1   
    43    15    22 1   
    44    15    49 1   
    45    15    53 1   
    46    15    54 1   
    47    16    42 1   
    48    17    43 1   
    49    18    44 1   
    50    45    46 1   
    51    45    47 1   
    52    45    48 1   
    53    49    50 1   
    54    49    55 1   
    55    49    56 1   
    56    50    51 1   
    57    50    57 1   
    58    50    58 1   
    59    51    52 1   
    60    51    59 1   
    61    52    53 1   
    62    52    60 1   
    63    52    61 1   
    64    53    62 1   
    65    53    63 1   
    66    54    64 1   
    67    54    71 1   
    68    54    72 1   
    69    59    65 2   
    70    59    66 1   
    71    64    73 1   
    72    64    74 1   
    73    64    75 1   
    74    66    67 1   
    75    67    68 1   
    76    67    69 1   
    77    67    70 1   
    78    68    76 1   
    79    68    77 1   
    80    68    78 1   
    81    69    79 1   
    82    69    80 1   
    83    69    81 1   
    84    70    82 1   
    85    70    83 1   
    86    70    84 1   
    87    85    86 1   
@<TRIPOS>SUBSTRUCTURE
     1 N02         1 TEMP              0 ****  ****    0 ROOT
