@<TRIPOS>MOLECULE
molecule
   52    54     1     0     0
SMALL
bcc


@<TRIPOS>ATOM
      1 OE2          0.0000     0.0000     0.0000 o          1 N04      -0.873300
      2 CD           1.2090     0.0000     0.0000 c          1 N04       0.890600
      3 OE1          1.8800     0.0000     1.1620 o          1 N04      -0.873300
      4 CG           1.9610    -0.0070    -1.3060 c3         1 N04      -0.187400
      5 CB           0.9660    -0.0110    -2.4680 c3         1 N04      -0.059400
      6 C            0.7550     0.1000    -4.9370 c          1 N04       0.893600
      7 OXT         -0.0440     1.1750    -5.0280 o          1 N04      -0.858800
      8 O            0.6920    -0.7720    -5.7700 o          1 N04      -0.858800
      9 N            2.4800    -1.2710    -3.9190 ns         1 N04      -0.511900
     10 CAU          3.5810    -1.3220    -4.6950 c          1 N04       0.659700
     11 OBC          3.9520    -0.3290    -5.2900 o          1 N04      -0.635100
     12 CAT          4.3370    -2.5860    -4.8210 ca         1 N04      -0.103600
     13 CAQ          5.4790    -2.6430    -5.6240 ca         1 N04      -0.063000
     14 CAS          3.9170    -3.7260    -4.1340 ca         1 N04      -0.091000
     15 CAR          4.6280    -4.9020    -4.2570 ca         1 N04      -0.149000
     16 CAP          5.7550    -4.9530    -5.0580 ca         1 N04      -0.122000
     17 CAO          6.1800    -3.8250    -5.7370 ca         1 N04      -0.147300
     18 CAN          7.4120    -3.8890    -6.6040 c3         1 N04       0.166700
     19 CAA          9.1780    -3.3680    -8.7840 ca         1 N04      -0.074000
     20 CAB         10.3360    -3.3310    -9.5380 ca         1 N04      -0.130000
     21 CAG         11.5440    -3.0360    -8.9420 ca         1 N04      -0.098000
     22 CAC          9.2200    -3.1090    -7.4200 ca         1 N04       0.080100
     23 CAE         10.4250    -2.8110    -6.8090 ca         1 N04      -0.071000
     24 CAF         11.5980    -2.7730    -7.5680 ca         1 N04      -0.159800
     25 CAH         12.8830    -2.4570    -6.9270 ce         1 N04       0.135800
     26 SBG         13.5570    -1.0230    -9.9520 ss         1 N04      -0.130200
     27 CAL         15.2630    -0.5530   -10.0510 c          1 N04       0.717100
     28 NAX         15.8300    -0.8970    -8.8880 ns         1 N04      -0.582500
     29 CA           1.7300    -0.0180    -3.7940 c3         1 N04      -0.003300
     30 CAK         15.0960    -1.4730    -7.9510 c          1 N04       0.676700
     31 CAI         13.6860    -1.6780    -8.3080 cd         1 N04      -0.203600
     32 OAY          8.5610    -3.5580    -5.8220 os         1 N04      -0.333900
     33 HG1C         2.5830    -0.8920    -1.3600 hc         1 N04       0.021700
     34 HG2C         2.5840     0.8770    -1.3680 hc         1 N04       0.021700
     35 HB1C         0.3440     0.8740    -2.4140 hc         1 N04       0.061200
     36 HB2C         0.3420    -0.8950    -2.4060 hc         1 N04       0.061200
     37 HA           2.4180     0.8190    -3.8180 h1         1 N04       0.068700
     38 H            2.1520    -2.0980    -3.4610 hn         1 N04       0.300500
     39 HAQ          5.8130    -1.7600    -6.1570 ha         1 N04       0.154000
     40 HAS          3.0350    -3.6870    -3.5070 ha         1 N04       0.148000
     41 HAR          4.3020    -5.7890    -3.7260 ha         1 N04       0.119000
     42 HAP          6.3100    -5.8790    -5.1510 ha         1 N04       0.109000
     43 HAN1         7.3160    -3.1840    -7.4210 h1         1 N04       0.029200
     44 HAN2         7.5210    -4.8900    -7.0020 h1         1 N04       0.029200
     45 HAA          8.2320    -3.6010    -9.2590 ha         1 N04       0.152000
     46 HAB         10.2950    -3.5360   -10.6010 ha         1 N04       0.146000
     47 HAE         10.4460    -2.5230    -5.7640 ha         1 N04       0.169000
     48 HAG         12.4580    -3.0760    -9.5220 ha         1 N04       0.152000
     49 HAH         13.0380    -2.7050    -5.8840 ha         1 N04       0.214000
     50 HAX         16.8020    -0.7190    -8.7290 hn         1 N04       0.340500
     51 OBE         15.5540    -1.8080    -6.8750 o          1 N04      -0.623500
     52 OBH         15.8150    -0.0210   -10.9950 o          1 N04      -0.568500
@<TRIPOS>BOND
     1     3     2 1
     2     2     1 1
     3     2     4 1
     4     4     5 1
     5     5    29 1
     6     6     7 1
     7     6     8 1
     8     6    29 1
     9     9    10 1
    10     9    29 1
    11    10    11 2
    12    10    12 1
    13    12    13 ar
    14    12    14 ar
    15    13    17 ar
    16    14    15 ar
    17    15    16 ar
    18    16    17 ar
    19    17    18 1
    20    18    32 1
    21    19    22 ar
    22    19    20 ar
    23    22    23 ar
    24    22    32 1
    25    23    24 ar
    26    20    21 ar
    27    21    24 ar
    28    24    25 1
    29    25    31 2
    30    26    27 1
    31    26    31 1
    32    27    28 1
    33    27    52 2
    34    28    30 1
    35    30    51 2
    36    30    31 1
    37     4    33 1
    38     4    34 1
    39     5    35 1
    40     5    36 1
    41    29    37 1
    42     9    38 1
    43    13    39 1
    44    14    40 1
    45    15    41 1
    46    16    42 1
    47    18    43 1
    48    18    44 1
    49    19    45 1
    50    20    46 1
    51    23    47 1
    52    21    48 1
    53    25    49 1
    54    28    50 1
@<TRIPOS>SUBSTRUCTURE
     1 N04         1 TEMP              0 ****  ****    0 ROOT
