@<TRIPOS>MOLECULE
molecule
   64    67     1     0     0
SMALL
bcc


@<TRIPOS>ATOM
      1 O33          0.0000     0.0000     0.0000 o          1 N05      -0.853300
      2 C31          1.3430     0.0000     0.0000 c          1 N05       0.909600
      3 O32          1.9470     0.0000     1.0470 o          1 N05      -0.853300
      4 C30          2.0970    -0.0010    -1.3050 c3         1 N05      -0.278400
      5 C29          3.6010    -0.0010    -1.0250 c3         1 N05      -0.047400
      6 C26          4.3660    -0.0010    -2.3500 c3         1 N05      -0.101700
      7 C25          4.0990     1.3090    -3.0950 c3         1 N05      -0.321900
      8 C24          4.9150     1.3290    -4.3910 c3         1 N05       0.282800
      9 C27          5.8670    -0.1270    -2.0740 c3         1 N05      -0.321900
     10 C28          6.6310    -0.0670    -3.3990 c3         1 N05       0.282800
     11 N23          6.3430     1.2070    -4.0730 nh         1 N05      -0.785000
     12 C19          7.1260     1.3520    -5.2200 ca         1 N05       0.187600
     13 C34          6.5210     1.5860    -6.4490 ca         1 N05      -0.222000
     14 C18          7.3000     1.7360    -7.5820 ca         1 N05       0.146900
     15 F21          6.7140     1.9640    -8.7790 f          1 N05      -0.125900
     16 C17          8.6800     1.6530    -7.4930 ca         1 N05      -0.225000
     17 C20          8.5100     1.2700    -5.1340 ca         1 N05      -0.205000
     18 C16          9.2820     1.4200    -6.2690 ca         1 N05      -0.055300
     19 C4          10.7830     1.3290    -6.1770 c3         1 N05       0.167800
     20 C14         11.4090     1.7420    -7.5100 c3         1 N05      -0.378700
     21 C22         11.0430     3.1950    -7.8180 c3         1 N05      -0.127600
     22 C15         12.9310     1.6080    -7.4220 c3         1 N05      -0.127600
     23 C3          11.2800     2.2350    -5.0780 ce         1 N05       0.028100
     24 C8          11.2520     3.6500    -5.2940 cg         1 N05       0.148500
     25 N9          11.2140     4.7740    -5.4540 n1         1 N05      -0.265800
     26 C2          11.7480     1.7740    -3.9000 c2         1 N05       0.064100
     27 N7          12.1680     2.6970    -2.9740 nz         1 N05      -0.759400
     28 C5          11.1880    -0.0830    -5.8390 cc         1 N05      -0.369600
     29 C10         11.1630    -1.1860    -6.6030 cd         1 N05      -0.037600
     30 C13         10.7040    -1.2660    -8.0350 c3         1 N05      -0.035800
     31 N11         11.6230    -2.2140    -5.8520 na         1 N05      -0.026600
     32 N12         11.9440    -1.7160    -4.5800 nd         1 N05      -0.435800
     33 C6          11.6850    -0.4400    -4.5670 cc         1 N05       0.536600
     34 O1          11.8330     0.4700    -3.5680 os         1 N05      -0.301400
     35 H2           2.7300    -0.8310    -1.5930 hc         1 N05       0.080700
     36 H3           1.5370     0.4950    -2.0880 hc         1 N05       0.080700
     37 H4           3.8500    -1.0530    -0.9520 hc         1 N05       0.056200
     38 H5           3.7710     0.3370    -0.0100 hc         1 N05       0.056200
     39 H6           4.0410    -0.8350    -2.9610 hc         1 N05       0.055700
     40 H7           4.4860     2.0870    -2.4480 hc         1 N05       0.120450
     41 H8           4.7000     1.2610    -3.9960 hc         1 N05       0.120450
     42 H9           4.8680     2.1780    -5.0620 h1         1 N05       0.074450
     43 H10          4.4590     0.5830    -5.0300 h1         1 N05       0.074450
     44 H11          6.4680     0.2000    -2.9140 hc         1 N05       0.120450
     45 H12          5.8820     0.6550    -1.3240 hc         1 N05       0.120450
     46 H13          7.6940    -0.2680    -3.3440 h1         1 N05       0.074450
     47 H14          6.3690    -0.7810    -4.1700 h1         1 N05       0.074450
     48 H15          5.5360     1.5010    -6.8910 ha         1 N05       0.178000
     49 H16          9.0860     1.7330    -8.4940 ha         1 N05       0.144000
     50 H17          9.2090     0.6740    -4.5610 ha         1 N05       0.147000
     51 H18         10.7060     2.3170    -8.1000 hc         1 N05       0.302700
     52 H19         10.9500     3.7740    -6.9070 hc         1 N05       0.068200
     53 H20         11.9580     3.6440    -8.1850 hc         1 N05       0.068200
     54 H21         10.3820     3.3630    -8.6590 hc         1 N05       0.068200
     55 H22         13.0380     1.8130    -8.4800 hc         1 N05       0.068200
     56 H23         13.3510     2.1930    -6.6120 hc         1 N05       0.068200
     57 H24         13.0450     0.5510    -7.2140 hc         1 N05       0.068200
     58 H25         11.3160     2.8370    -2.4680 hn         1 N05       0.529467
     59 H26         13.0020     2.1990    -2.7330 hn         1 N05       0.529467
     60 H27         11.3930    -0.4920    -8.3530 hc         1 N05       0.090033
     61 H28          9.7540    -0.8440    -7.7300 hc         1 N05       0.090033
     62 H29         10.6210    -2.3210    -8.2620 hc         1 N05       0.090033
     63 H30         11.8050    -3.0620    -6.3520 hn         1 N05       0.359700
     64 H73         11.5690     3.4250    -3.3100 hn         1 N05       0.529467
@<TRIPOS>BOND
     1    25    24 3
     2    15    14 1
     3    24    23 1
     4    14    16 ar
     5    14    13 ar
     6    16    18 ar
     7    27    26 1
     8    23    26 2
     9    23    19 1
    10    20    21 1
    11    20    19 1
    12    20    22 1
    13    26    34 1
    14    13    12 ar
    15    18    19 1
    16    18    17 ar
    17    19    28 1
    18    12    17 ar
    19    12    11 1
    20    34    33 1
    21     8    11 1
    22     8     7 1
    23    28    33 1
    24    28    29 2
    25    11    10 1
    26    33    32 2
    27     7     6 1
    28    29    30 1
    29    29    31 1
    30    10     9 1
    31    32    31 1
    32     6     9 1
    33     6     5 1
    34     5     4 1
    35     4     2 1
    36     3     2 1
    37     2     1 1
    38     4    35 1
    39     4    36 1
    40     5    37 1
    41     5    38 1
    42     6    39 1
    43     7    40 1
    44     7    41 1
    45     8    42 1
    46     8    43 1
    47     9    44 1
    48     9    45 1
    49    10    46 1
    50    10    47 1
    51    13    48 1
    52    16    49 1
    53    17    50 1
    54    20    51 1
    55    21    52 1
    56    21    53 1
    57    21    54 1
    58    22    55 1
    59    22    56 1
    60    22    57 1
    61    27    58 1
    62    27    59 1
    63    30    60 1
    64    30    61 1
    65    30    62 1
    66    31    63 1
    67    64    27 1
@<TRIPOS>SUBSTRUCTURE
     1 N05         1 TEMP              0 ****  ****    0 ROOT
