@<TRIPOS>MOLECULE
molecule
   41    44     1     0     0
SMALL
bcc


@<TRIPOS>ATOM
      1 O4           0.0000     0.0000     0.0000 o          1 N09      -0.553500
      2 C22          1.2160     0.0000     0.0000 c          1 N09       0.791200
      3 C17          1.9940     0.0000     1.2460 cc         1 N09      -0.407900
      4 C16          1.7200     0.3790     2.5540 cd         1 N09       0.420200
      5 N3           2.7920     0.1660     3.2760 nc         1 N09      -0.505800
      6 O3           1.9350    -0.0050    -1.1520 os         1 N09      -0.327200
      7 C20          3.1000    -0.6920    -1.2130 ca         1 N09       0.177100
      8 C26          3.5590    -1.1660    -2.4360 ca         1 N09      -0.141000
      9 C25          4.7570    -1.8450    -2.5130 ca         1 N09      -0.084000
     10 C24          5.5250    -2.0630    -1.3790 ca         1 N09      -0.150000
     11 C23          5.0900    -1.6050    -0.1520 ca         1 N09      -0.088000
     12 C19          3.8770    -0.9300    -0.0610 ca         1 N09      -0.100000
     13 C18          3.3310    -0.4700     1.2170 cd         1 N09       0.031700
     14 N2           3.8090    -0.3620     2.4590 na         1 N09       0.118400
     15 C13          5.1580    -0.7280     2.8950 c3         1 N09      -0.007700
     16 C11          5.1710    -2.1700     3.3330 c          1 N09       0.631100
     17 O2           4.1520    -2.8260     3.2860 o          1 N09      -0.551100
     18 N1           6.3120    -2.7300     3.7770 ns         1 N09      -0.478100
     19 C4           6.3040    -4.0380     4.2760 ca         1 N09       0.087600
     20 C3           5.4640    -4.9900     3.7120 ca         1 N09      -0.156000
     21 C2           5.4600    -6.2830     4.2000 ca         1 N09      -0.070000
     22 C5           7.1380    -4.3860     5.3300 ca         1 N09      -0.247000
     23 C6           7.1270    -5.6820     5.8200 ca         1 N09       0.165100
     24 C1           6.2890    -6.6320     5.2490 ca         1 N09      -0.014600
     25 Cl           6.2790    -8.2570     5.8590 cl         1 N09      -0.089400
     26 O1           7.9420    -6.0260     6.8520 os         1 N09      -0.310900
     27 C8           8.7840    -5.0010     7.3820 c3         1 N09       0.127700
     28 H1           0.7810     0.7810     2.9160 h4         1 N09       0.068100
     29 H2           2.9710    -1.0050    -3.3320 ha         1 N09       0.157000
     30 H3           5.1060    -2.2070    -3.4720 ha         1 N09       0.142000
     31 H4           6.4640    -2.5970    -1.4560 ha         1 N09       0.139000
     32 H5           5.6880    -1.7740     0.7350 ha         1 N09       0.127000
     33 H6           5.8520    -0.5940     2.0740 h1         1 N09       0.090700
     34 H7           5.4530    -0.0960     3.7240 h1         1 N09       0.090700
     35 H8           7.1690    -2.2140     3.7420 hn         1 N09       0.323500
     36 H9           4.8140    -4.7190     2.8900 ha         1 N09       0.171000
     37 H10          4.8060    -7.0250     3.7580 ha         1 N09       0.155000
     38 H11          7.7900    -3.6430     5.7730 ha         1 N09       0.141000
     39 H12          8.1730    -4.1880     7.7540 h1         1 N09       0.043367
     40 H13          9.4400    -4.6330     6.6020 h1         1 N09       0.043367
     41 H14          9.3790    -5.4060     8.1920 h1         1 N09       0.043367
@<TRIPOS>BOND
     1    25    24 1
     2    21    24 ar
     3    21    20 ar
     4    24    23 ar
     5    20    19 ar
     6    23    26 1
     7    23    22 ar
     8    19    22 ar
     9    19    18 1
    10    26    27 1
    11    18    16 1
    12    16    15 1
    13    16    17 2
    14    15    14 1
    15     5    14 1
    16     5     4 2
    17    14    13 1
    18    11    10 ar
    19    11    12 ar
    20     4     3 1
    21    13    12 1
    22    13     3 2
    23    10     9 ar
    24    12     7 ar
    25     3     2 1
    26     9     8 ar
    27     7     8 ar
    28     7     6 1
    29     2     6 1
    30     2     1 2
    31     4    28 1
    32     8    29 1
    33     9    30 1
    34    10    31 1
    35    11    32 1
    36    15    33 1
    37    15    34 1
    38    18    35 1
    39    20    36 1
    40    21    37 1
    41    22    38 1
    42    27    39 1
    43    27    40 1
    44    27    41 1
@<TRIPOS>SUBSTRUCTURE
     1 N09         1 TEMP              0 ****  ****    0 ROOT
