@<TRIPOS>MOLECULE
N09
   41    44     1     0     0
SMALL
bcc


@<TRIPOS>ATOM
      1 O4           0.0000     0.0000     0.0000 o          1 N09      -0.602500
      2 C22          1.2160     0.0000     0.0000 c          1 N09       0.858200
      3 C17          1.9940     0.0000     1.2460 cc         1 N09      -0.440900
      4 C16          1.7200     0.3790     2.5540 cc         1 N09       0.501200
      5 N3           2.7920     0.1660     3.2760 nd         1 N09      -0.672800
      6 O3           1.9350    -0.0050    -1.1520 os         1 N09      -0.305200
      7 C20          3.1000    -0.6920    -1.2130 ca         1 N09       0.182100
      8 C26          3.5590    -1.1660    -2.4360 ca         1 N09      -0.124000
      9 C25          4.7570    -1.8450    -2.5130 ca         1 N09      -0.055000
     10 C24          5.5250    -2.0630    -1.3790 ca         1 N09      -0.124000
     11 C23          5.0900    -1.6050    -0.1520 ca         1 N09      -0.074000
     12 C19          3.8770    -0.9300    -0.0610 ca         1 N09      -0.087000
     13 C18          3.3310    -0.4700     1.2170 cd         1 N09      -0.139300
     14 N2           3.8090    -0.3620     2.4590 na         1 N09       0.589400
     15 C13          5.1580    -0.7280     2.8950 c3         1 N09      -0.110700
     16 C11          5.1710    -2.1700     3.3330 c          1 N09       0.536100
     17 O2           4.1520    -2.8260     3.2860 o          1 N09      -0.602100
     18 N1           6.3120    -2.7300     3.7770 ns         1 N09      -0.023100
     19 C4           6.3040    -4.0380     4.2760 ca         1 N09      -0.059400
     20 C3           5.4640    -4.9900     3.7120 ca         1 N09      -0.134000
     21 C2           5.4600    -6.2830     4.2000 ca         1 N09      -0.041000
     22 C5           7.1380    -4.3860     5.3300 ca         1 N09      -0.232000
     23 C6           7.1270    -5.6820     5.8200 ca         1 N09       0.173100
     24 C1           6.2890    -6.6320     5.2490 ca         1 N09      -0.084600
     25 Cl           6.2790    -8.2570     5.8590 cl         1 N09      -0.002400
     26 O1           7.9420    -6.0260     6.8520 os         1 N09      -0.294900
     27 C8           8.7840    -5.0010     7.3820 c3         1 N09       0.244700
     28 H1           0.7810     0.7810     2.9160 h4         1 N09       0.014100
     29 H2           2.9710    -1.0050    -3.3320 ha         1 N09       0.124000
     30 H3           5.1060    -2.2070    -3.4720 ha         1 N09       0.107000
     31 H4           6.4640    -2.5970    -1.4560 ha         1 N09       0.109000
     32 H5           5.6880    -1.7740     0.7350 ha         1 N09       0.101000
     33 H6           5.8520    -0.5940     2.0740 h1         1 N09       0.058200
     34 H7           5.4530    -0.0960     3.7240 h1         1 N09       0.058200
     35 H8           7.1690    -2.2140     3.7420 hn         1 N09       0.165500
     36 H9           4.8140    -4.7190     2.8900 ha         1 N09       0.149000
     37 H10          4.8060    -7.0250     3.7580 ha         1 N09       0.119000
     38 H11          7.7900    -3.6430     5.7730 ha         1 N09       0.126000
     39 H12          8.1730    -4.1880     7.7540 h1         1 N09      -0.001633
     40 H13          9.4400    -4.6330     6.6020 h1         1 N09      -0.001633
     41 H14          9.3790    -5.4060     8.1920 h1         1 N09      -0.001633
@<TRIPOS>BOND
     1     1     2 2   
     2     2     3 1   
     3     2     6 1   
     4     3     4 1   
     5     3    13 2   
     6     4     5 2   
     7     4    28 1   
     8     5    14 1   
     9     6     7 1   
    10     7     8 ar  
    11     7    12 ar  
    12     8     9 ar  
    13     8    29 1   
    14     9    10 ar  
    15     9    30 1   
    16    10    11 ar  
    17    10    31 1   
    18    11    12 ar  
    19    11    32 1   
    20    12    13 1   
    21    13    14 1   
    22    14    15 1   
    23    15    16 1   
    24    15    33 1   
    25    15    34 1   
    26    16    17 2   
    27    16    18 1   
    28    18    19 1   
    29    18    35 1   
    30    19    20 ar  
    31    19    22 ar  
    32    20    21 ar  
    33    20    36 1   
    34    21    24 ar  
    35    21    37 1   
    36    22    23 ar  
    37    22    38 1   
    38    23    24 ar  
    39    23    26 1   
    40    24    25 1   
    41    26    27 1   
    42    27    39 1   
    43    27    40 1   
    44    27    41 1   
@<TRIPOS>SUBSTRUCTURE
     1 N09         1 TEMP              0 ****  ****    0 ROOT
