@<TRIPOS>MOLECULE
molecule
   70    72     1     0     0
SMALL
bcc


@<TRIPOS>ATOM
      1 C1           0.0000     0.0000     0.0000 c          1 N12       0.893600
      2 C2           1.4970     0.0000     0.0000 c3         1 N12       0.048800
      3 N3           1.9660     0.0000     1.3850 n7         1 N12      -0.787200
      4 C4           3.4040    -0.0320     1.4590 c3         1 N12       0.100500
      5 C5           3.9270     1.2150     0.7540 c          1 N12       0.630100
      6 C6           3.9060    -0.0770     2.9010 c3         1 N12      -0.055400
      7 C7           3.3940    -1.3000     3.6580 c3         1 N12      -0.064700
      8 C8           3.8950    -2.5930     3.0000 c3         1 N12      -0.071400
      9 C9           3.4400    -3.8310     3.7700 c3         1 N12      -0.075400
     10 C10          3.8500    -3.7640     5.2380 c3         1 N12      -0.075400
     11 C11          3.3580    -2.4810     5.8990 c3         1 N12      -0.075400
     12 C12          3.8130    -1.2410     5.1330 c3         1 N12      -0.071400
     13 O13          3.7110     2.3550     1.1620 o          1 N12      -0.597100
     14 N14          4.7050     0.9040    -0.3520 ns         1 N12      -0.602900
     15 C15          5.3560     1.9080    -1.1560 c3         1 N12       0.048400
     16 C16          6.2820     2.6310    -0.1970 c          1 N12       0.670100
     17 O17          6.1550     3.8390    -0.0310 o          1 N12      -0.576100
     18 N18          7.2140     1.8120     0.4110 ns         1 N12      -0.591900
     19 C19          8.1930     2.2960     1.3580 c3         1 N12       0.150300
     20 C20          7.6820     2.2460     2.7690 ca         1 N12      -0.169600
     21 C21          7.0110     3.3270     3.3130 ca         1 N12      -0.039000
     22 C22          6.5500     3.2510     4.6220 ca         1 N12      -0.233300
     23 C23          6.7880     2.0820     5.3270 ca         1 N12       0.322000
     24 N24          7.4390     1.0120     4.8200 nb         1 N12      -0.583000
     25 C25          7.8740     1.1230     3.5440 ca         1 N12       0.416200
     26 O26         -0.4640    -0.0230    -1.2770 o          1 N12      -0.836800
     27 O27         -0.7260     0.0190     0.9830 o          1 N12      -0.836800
     28 C28          6.3280     1.9480     6.6980 ce         1 N12       0.416200
     29 N29          6.5790     0.8170     7.3260 n2         1 N12      -0.629100
     30 N30          5.6400     2.9330     7.3990 nz         1 N12      -0.801600
     31 C31          4.3400     2.8430    -1.8100 c3         1 N12      -0.084900
     32 C32          6.1800     1.2870    -2.2860 c3         1 N12      -0.084900
     33 C33          4.8780     3.0680    -3.2180 c3         1 N12      -0.084900
     34 C34          5.4840     1.7220    -3.5730 c3         1 N12      -0.084900
     35 H21A         1.8610     0.8850    -0.5070 h1         1 N12       0.030700
     36 H22A         1.8610    -0.8850    -0.5070 h1         1 N12       0.030700
     37 HN3          1.6260     0.8170     1.8520 hn         1 N12       0.376800
     38 H4           3.7630    -0.9090     0.9340 h1         1 N12       0.057700
     39 H61          4.9890    -0.0960     2.8940 hc         1 N12       0.026700
     40 H62          3.5740     0.8170     3.4150 hc         1 N12       0.026700
     41 H7           2.3110    -1.3000     3.6160 hc         1 N12       0.094700
     42 H81          4.9770    -2.5760     2.9700 hc         1 N12       0.029950
     43 H82          3.5090    -2.6460     1.9890 hc         1 N12       0.029950
     44 H91          2.3610    -3.9070     3.7090 hc         1 N12       0.040950
     45 H92          3.8870    -4.7090     3.3200 hc         1 N12       0.040950
     46 H101         4.9310    -3.8010     5.3030 hc         1 N12       0.034700
     47 H102         3.4290    -4.6140     5.7610 hc         1 N12       0.034700
     48 H111         3.7480    -2.4330     6.9090 hc         1 N12       0.040950
     49 H112         2.2750    -2.4960     5.9340 hc         1 N12       0.040950
     50 H121         4.8920    -1.1690     5.1890 hc         1 N12       0.029950
     51 H122         3.3700    -0.3630     5.5890 hc         1 N12       0.029950
     52 HN14         4.8200    -0.0580    -0.6030 hn         1 N12       0.319500
     53 HN18         7.2110     0.8370     0.1840 hn         1 N12       0.325500
     54 H191         8.4450     3.3200     1.1110 h1         1 N12       0.067200
     55 H192         9.0850     1.6850     1.2850 h1         1 N12       0.067200
     56 H21          6.8470     4.2220     2.7250 ha         1 N12       0.185000
     57 H22          6.0220     4.0800     5.0770 ha         1 N12       0.122000
     58 H25          8.4000     0.2820     3.1070 h4         1 N12       0.044100
     59 HN29         6.2760     0.6920     8.2720 hn         1 N12       0.418400
     60 H301         5.3470     2.5700     8.2840 hn         1 N12       0.463467
     61 H302         4.8380     3.2190     6.8730 hn         1 N12       0.463467
     62 H311         4.2910     3.7820    -1.2710 hc         1 N12       0.067200
     63 H312         3.3660     2.3720    -1.8500 hc         1 N12       0.067200
     64 H321         7.1940     1.6670    -2.2620 hc         1 N12       0.067200
     65 H322         6.1750     0.2070    -2.2040 hc         1 N12       0.067200
     66 H331         4.0730     3.3150    -3.8980 hc         1 N12       0.052700
     67 H332         5.6380     3.8400    -3.2160 hc         1 N12       0.052700
     68 H341         4.7080     1.0160    -3.8410 hc         1 N12       0.052700
     69 H342         6.2040     1.8300    -4.3750 hc         1 N12       0.052700
     70 H303         6.2430     3.7180     7.5500 hn         1 N12       0.463467
@<TRIPOS>BOND
     1     1    26 1
     2     1     2 1
     3     1    27 1
     4     2     3 1
     5     2    35 1
     6     2    36 1
     7     3     4 1
     8     3    37 1
     9     4     5 1
    10     4     6 1
    11     4    38 1
    12     5    14 1
    13     5    13 2
    14     6     7 1
    15     6    39 1
    16     6    40 1
    17     7    12 1
    18     7     8 1
    19     7    41 1
    20     8     9 1
    21     8    42 1
    22     8    43 1
    23     9    10 1
    24     9    44 1
    25     9    45 1
    26    10    11 1
    27    10    46 1
    28    10    47 1
    29    11    12 1
    30    11    48 1
    31    11    49 1
    32    12    50 1
    33    12    51 1
    34    14    15 1
    35    14    52 1
    36    15    31 1
    37    15    16 1
    38    15    32 1
    39    16    17 2
    40    16    18 1
    41    18    19 1
    42    18    53 1
    43    19    20 1
    44    19    54 1
    45    19    55 1
    46    20    21 ar
    47    20    25 ar
    48    21    22 ar
    49    21    56 1
    50    22    23 ar
    51    22    57 1
    52    23    24 ar
    53    23    28 1
    54    24    25 ar
    55    25    58 1
    56    28    30 1
    57    28    29 2
    58    29    59 1
    59    30    60 1
    60    30    61 1
    61    31    33 1
    62    31    62 1
    63    31    63 1
    64    32    34 1
    65    32    64 1
    66    32    65 1
    67    33    34 1
    68    33    66 1
    69    33    67 1
    70    34    68 1
    71    34    69 1
    72    70    30 1
@<TRIPOS>SUBSTRUCTURE
     1 N12         1 TEMP              0 ****  ****    0 ROOT
