@<TRIPOS>MOLECULE
N12
   70    72     1     0     0
SMALL
bcc


@<TRIPOS>ATOM
      1 C1           0.0000     0.0000     0.0000 c          1 N12       0.979600
      2 C2           1.4970     0.0000     0.0000 c3         1 N12       0.020800
      3 N3           1.9660     0.0000     1.3850 n7         1 N12      -0.551200
      4 C4           3.4040    -0.0320     1.4590 c3         1 N12       0.040500
      5 C5           3.9270     1.2150     0.7540 c          1 N12       0.606100
      6 C6           3.9060    -0.0770     2.9010 c3         1 N12      -0.008400
      7 C7           3.3940    -1.3000     3.6580 c3         1 N12      -0.060700
      8 C8           3.8950    -2.5930     3.0000 c3         1 N12      -0.016900
      9 C9           3.4400    -3.8310     3.7700 c3         1 N12      -0.021400
     10 C10          3.8500    -3.7640     5.2380 c3         1 N12      -0.019400
     11 C11          3.3580    -2.4810     5.8990 c3         1 N12      -0.021400
     12 C12          3.8130    -1.2410     5.1330 c3         1 N12      -0.016900
     13 O13          3.7110     2.3550     1.1620 o          1 N12      -0.601100
     14 N14          4.7050     0.9040    -0.3520 ns         1 N12      -0.253900
     15 C15          5.3560     1.9080    -1.1560 c3         1 N12      -0.060600
     16 C16          6.2820     2.6310    -0.1970 c          1 N12       0.590100
     17 O17          6.1550     3.8390    -0.0310 o          1 N12      -0.595100
     18 N18          7.2140     1.8120     0.4110 ns         1 N12      -0.223900
     19 C19          8.1930     2.2960     1.3580 c3         1 N12       0.105300
     20 C20          7.6820     2.2460     2.7690 ca         1 N12      -0.181600
     21 C21          7.0110     3.3270     3.3130 ca         1 N12       0.009000
     22 C22          6.5500     3.2510     4.6220 ca         1 N12      -0.195300
     23 C23          6.7880     2.0820     5.3270 ca         1 N12       0.268000
     24 N24          7.4390     1.0120     4.8200 nb         1 N12      -0.567000
     25 C25          7.8740     1.1230     3.5440 ca         1 N12       0.438200
     26 O26         -0.4640    -0.0230    -1.2770 o          1 N12      -0.887300
     27 O27         -0.7260     0.0190     0.9830 o          1 N12      -0.887300
     28 C28          6.3280     1.9480     6.6980 ce         1 N12       0.070200
     29 N29          6.5790     0.8170     7.3260 n2         1 N12      -0.476100
     30 N30          5.6400     2.9330     7.3990 nz         1 N12       0.196400
     31 C31          4.3400     2.8430    -1.8100 c3         1 N12      -0.034900
     32 C32          6.1800     1.2870    -2.2860 c3         1 N12      -0.034900
     33 C33          4.8780     3.0680    -3.2180 c3         1 N12      -0.024900
     34 C34          5.4840     1.7220    -3.5730 c3         1 N12      -0.024900
     35 H21A         1.8610     0.8850    -0.5070 h1         1 N12       0.007700
     36 H22A         1.8610    -0.8850    -0.5070 h1         1 N12       0.007700
     37 HN3          1.5890    -0.7940     1.8650 hn         1 N12       0.270800
     38 H4           3.7630    -0.9090     0.9340 h1         1 N12      -0.004300
     39 H61          3.5740     0.8170     3.4150 hc         1 N12       0.005700
     40 H62          4.9890    -0.0960     2.8940 hc         1 N12       0.005700
     41 H7           2.3110    -1.3000     3.6160 hc         1 N12       0.061700
     42 H81          3.5090    -2.6460     1.9890 hc         1 N12       0.003200
     43 H82          4.9770    -2.5760     2.9700 hc         1 N12       0.003200
     44 H91          2.3610    -3.9070     3.7090 hc         1 N12       0.014950
     45 H92          3.8870    -4.7090     3.3200 hc         1 N12       0.014950
     46 H101         4.9310    -3.8010     5.3030 hc         1 N12       0.008200
     47 H102         3.4290    -4.6140     5.7610 hc         1 N12       0.008200
     48 H111         2.2750    -2.4960     5.9340 hc         1 N12       0.014950
     49 H112         3.7480    -2.4330     6.9090 hc         1 N12       0.014950
     50 H121         3.3700    -0.3630     5.5890 hc         1 N12       0.003200
     51 H122         4.8920    -1.1690     5.1890 hc         1 N12       0.003200
     52 HN14         4.8200    -0.0580    -0.6030 hn         1 N12       0.188500
     53 HN18         7.2110     0.8370     0.1840 hn         1 N12       0.184500
     54 H191         8.4450     3.3200     1.1110 h1         1 N12       0.035700
     55 H192         9.0850     1.6850     1.2850 h1         1 N12       0.035700
     56 H21          6.8470     4.2220     2.7250 ha         1 N12       0.151000
     57 H22          6.0220     4.0800     5.0770 ha         1 N12       0.103000
     58 H25          8.4000     0.2820     3.1070 h4         1 N12      -0.005900
     59 HN29         7.0720     0.0820     6.8590 hn         1 N12       0.398400
     60 H301         5.3770     2.5810     8.2980 hn         1 N12       0.218800
     61 H302         6.2290     3.7340     7.5140 hn         1 N12       0.218800
     62 H311         3.3660     2.3720    -1.8500 hc         1 N12       0.038950
     63 H312         4.2910     3.7820    -1.2710 hc         1 N12       0.038950
     64 H321         6.1750     0.2070    -2.2040 hc         1 N12       0.038950
     65 H322         7.1940     1.6670    -2.2620 hc         1 N12       0.038950
     66 H331         4.0730     3.3150    -3.8980 hc         1 N12       0.022950
     67 H332         5.6380     3.8400    -3.2160 hc         1 N12       0.022950
     68 H341         6.2040     1.8300    -4.3750 hc         1 N12       0.022950
     69 H342         4.7080     1.0160    -3.8410 hc         1 N12       0.022950
     70 H303         4.8140     3.1870     6.8940 hn         1 N12       0.218800
@<TRIPOS>BOND
     1     1     2 1   
     2     1    26 1   
     3     1    27 1   
     4     2     3 1   
     5     2    35 1   
     6     2    36 1   
     7     3     4 1   
     8     3    37 1   
     9     4     5 1   
    10     4     6 1   
    11     4    38 1   
    12     5    13 2   
    13     5    14 1   
    14     6     7 1   
    15     6    39 1   
    16     6    40 1   
    17     7     8 1   
    18     7    12 1   
    19     7    41 1   
    20     8     9 1   
    21     8    42 1   
    22     8    43 1   
    23     9    10 1   
    24     9    44 1   
    25     9    45 1   
    26    10    11 1   
    27    10    46 1   
    28    10    47 1   
    29    11    12 1   
    30    11    48 1   
    31    11    49 1   
    32    12    50 1   
    33    12    51 1   
    34    14    15 1   
    35    14    52 1   
    36    15    16 1   
    37    15    31 1   
    38    15    32 1   
    39    16    17 2   
    40    16    18 1   
    41    18    19 1   
    42    18    53 1   
    43    19    20 1   
    44    19    54 1   
    45    19    55 1   
    46    20    21 ar  
    47    20    25 ar  
    48    21    22 ar  
    49    21    56 1   
    50    22    23 ar  
    51    22    57 1   
    52    23    24 ar  
    53    23    28 1   
    54    24    25 ar  
    55    25    58 1   
    56    28    29 2   
    57    28    30 1   
    58    29    59 1   
    59    30    60 1   
    60    30    61 1   
    61    30    70 1   
    62    31    33 1   
    63    31    62 1   
    64    31    63 1   
    65    32    34 1   
    66    32    64 1   
    67    32    65 1   
    68    33    34 1   
    69    33    66 1   
    70    33    67 1   
    71    34    68 1   
    72    34    69 1   
@<TRIPOS>SUBSTRUCTURE
     1 N12         1 TEMP              0 ****  ****    0 ROOT
