@<TRIPOS>MOLECULE
N13
   52    57     1     0     0
SMALL
bcc


@<TRIPOS>ATOM
      1 CA           0.0000     0.0000     0.0000 c          1 N13       0.550100
      2 C29          1.5300     0.8690     2.2460 ca         1 N13      -0.138000
      3 C30          2.2230     0.9720     3.4390 ca         1 N13       0.128900
      4 FA           1.7190     1.7090     4.4520 f          1 N13      -0.124900
      5 C31          3.4360     0.3210     3.5930 ca         1 N13      -0.146000
      6 C32          3.9540    -0.4340     2.5570 ca         1 N13      -0.056000
      7 C33          3.2660    -0.5410     1.3650 ca         1 N13      -0.147000
      8 C28          2.0470     0.1070     1.2080 ca         1 N13      -0.064400
      9 NB           1.3470     0.0000     0.0000 ns         1 N13      -0.038100
     10 OB          -0.6060     0.0000     1.0510 o          1 N13      -0.609100
     11 C26         -0.7530     0.0080    -1.3040 c3         1 N13      -0.002100
     12 C21         -2.2350     0.0070    -1.0300 cc         1 N13      -0.240600
     13 C25         -2.9980     1.0940    -0.7850 cd         1 N13      -0.293300
     14 N22         -3.0350    -1.0810    -0.9900 na         1 N13       0.467400
     15 N23         -4.3380    -0.6540    -0.7050 nc         1 N13      -0.656800
     16 C24         -4.3210     0.6560    -0.5810 cd         1 N13       0.427800
     17 C16         -5.4910     1.5190    -0.2820 ca         1 N13      -0.067500
     18 C17         -6.7200     0.9410     0.0050 ca         1 N13      -0.101000
     19 C15         -5.3460     2.9110    -0.2860 ca         1 N13      -0.137000
     20 C14         -6.4120     3.7170    -0.0110 ca         1 N13      -0.011000
     21 C18         -7.6580     3.1530     0.2740 ca         1 N13      -0.219900
     22 C19         -7.8130     1.7540     0.2850 ca         1 N13      -0.193200
     23 N11         -9.1240     1.4990     0.5990 na         1 N13       0.427900
     24 N12         -9.7990     2.7090     0.7860 nc         1 N13      -0.659100
     25 C13         -8.9740     3.7150     0.6020 cd         1 N13       0.387600
     26 C02         -9.3070     5.1490     0.7150 cd         1 N13       0.211500
     27 N03        -10.5450     5.6480     1.0230 na         1 N13       0.285700
     28 C08        -10.4390     7.0260     1.0300 ca         1 N13      -0.275200
     29 C04        -11.3360     8.0580     1.2690 ca         1 N13      -0.087000
     30 C05        -10.9100     9.3680     1.1980 ca         1 N13      -0.090000
     31 C06         -9.5890     9.6620     0.8890 ca         1 N13      -0.120000
     32 C07         -8.6860     8.6530     0.6490 ca         1 N13      -0.039000
     33 C09         -9.1000     7.3180     0.7160 ca         1 N13       0.064400
     34 N01         -8.4610     6.1360     0.5410 nc         1 N13      -0.513100
     35 H1           0.5800     1.3750     2.1260 ha         1 N13       0.156000
     36 H2           3.9780     0.4020     4.5270 ha         1 N13       0.120000
     37 H3           4.9040    -0.9410     2.6810 ha         1 N13       0.106000
     38 H4           3.6720    -1.1340     0.5550 ha         1 N13       0.108000
     39 H5           1.8480    -0.0440    -0.8660 hn         1 N13       0.168500
     40 H6          -0.4910     0.8950    -1.8680 hc         1 N13       0.032700
     41 H7          -0.4920    -0.8740    -1.8770 hc         1 N13       0.032700
     42 H8          -2.6540     2.1210    -0.7500 ha         1 N13       0.139000
     43 H9          -2.7460    -2.0280    -1.1360 hn         1 N13       0.143700
     44 H10         -6.7990    -0.1330     0.1230 ha         1 N13       0.124000
     45 H11         -4.3820     3.3520    -0.5080 ha         1 N13       0.113000
     46 H12         -6.2920     4.7930    -0.0160 ha         1 N13       0.129000
     47 H13         -9.5320     0.5890     0.6830 hn         1 N13       0.152700
     48 H14        -11.3960     5.1230     1.0700 hn         1 N13       0.137700
     49 H15        -12.3680     7.8350     1.5110 ha         1 N13       0.100000
     50 H16        -11.6100    10.1720     1.3850 ha         1 N13       0.102000
     51 H17         -9.2670    10.6950     0.8370 ha         1 N13       0.104000
     52 H18         -7.6570     8.8910     0.4080 ha         1 N13       0.109000
@<TRIPOS>BOND
     1     1     9 1   
     2     1    10 2   
     3     1    11 1   
     4     2     3 ar  
     5     2     8 ar  
     6     2    35 1   
     7     3     4 1   
     8     3     5 ar  
     9     5     6 ar  
    10     5    36 1   
    11     6     7 ar  
    12     6    37 1   
    13     7     8 ar  
    14     7    38 1   
    15     8     9 1   
    16     9    39 1   
    17    11    12 1   
    18    11    40 1   
    19    11    41 1   
    20    12    13 2   
    21    12    14 1   
    22    13    16 1   
    23    13    42 1   
    24    14    15 1   
    25    14    43 1   
    26    15    16 2   
    27    16    17 1   
    28    17    18 ar  
    29    17    19 ar  
    30    18    22 ar  
    31    18    44 1   
    32    19    20 ar  
    33    19    45 1   
    34    20    21 ar  
    35    20    46 1   
    36    21    22 ar  
    37    21    25 1   
    38    22    23 1   
    39    23    24 1   
    40    23    47 1   
    41    24    25 2   
    42    25    26 1   
    43    26    27 1   
    44    26    34 2   
    45    27    28 1   
    46    27    48 1   
    47    28    29 ar  
    48    28    33 ar  
    49    29    30 ar  
    50    29    49 1   
    51    30    31 ar  
    52    30    50 1   
    53    31    32 ar  
    54    31    51 1   
    55    32    33 ar  
    56    32    52 1   
    57    33    34 1   
@<TRIPOS>SUBSTRUCTURE
     1 N13         1 TEMP              0 ****  ****    0 ROOT
