@<TRIPOS>MOLECULE
molecule
   52    57     1     0     0
SMALL
bcc


@<TRIPOS>ATOM
      1 CA           0.0000     0.0000     0.0000 c          1 N13       0.651100
      2 C29          1.5300     0.8690     2.2460 ca         1 N13      -0.170000
      3 C30          2.2230     0.9720     3.4390 ca         1 N13       0.153900
      4 FA           1.7190     1.7090     4.4520 f          1 N13      -0.134900
      5 C31          3.4360     0.3210     3.5930 ca         1 N13      -0.184000
      6 C32          3.9540    -0.4340     2.5570 ca         1 N13      -0.086000
      7 C33          3.2660    -0.5410     1.3650 ca         1 N13      -0.178000
      8 C28          2.0470     0.1070     1.2080 ca         1 N13       0.080600
      9 NB           1.3470     0.0000     0.0000 ns         1 N13      -0.481100
     10 OB          -0.6060     0.0000     1.0510 o          1 N13      -0.564100
     11 C26         -0.7530     0.0080    -1.3040 c3         1 N13      -0.090100
     12 C21         -2.2350     0.0070    -1.0300 cc         1 N13      -0.061600
     13 C25         -2.9980     1.0940    -0.7850 cd         1 N13      -0.306300
     14 N22         -3.0350    -1.0810    -0.9900 na         1 N13      -0.031600
     15 N23         -4.3380    -0.6540    -0.7050 nc         1 N13      -0.497800
     16 C24         -4.3210     0.6560    -0.5810 cd         1 N13       0.396800
     17 C16         -5.4910     1.5190    -0.2820 ca         1 N13      -0.063500
     18 C17         -6.7200     0.9410     0.0050 ca         1 N13      -0.138000
     19 C15         -5.3460     2.9110    -0.2860 ca         1 N13      -0.155000
     20 C14         -6.4120     3.7170    -0.0110 ca         1 N13      -0.043000
     21 C18         -7.6580     3.1530     0.2740 ca         1 N13      -0.211900
     22 C19         -7.8130     1.7540     0.2850 ca         1 N13      -0.024200
     23 N11         -9.1240     1.4990     0.5990 na         1 N13      -0.043100
     24 N12         -9.7990     2.7090     0.7860 nd         1 N13      -0.506100
     25 C13         -8.9740     3.7150     0.6020 cc         1 N13       0.360600
     26 C02         -9.3070     5.1490     0.7150 cc         1 N13       0.425500
     27 N03        -10.5450     5.6480     1.0230 na         1 N13      -0.250300
     28 C08        -10.4390     7.0260     1.0300 ca         1 N13      -0.088200
     29 C04        -11.3360     8.0580     1.2690 ca         1 N13      -0.128000
     30 C05        -10.9100     9.3680     1.1980 ca         1 N13      -0.111000
     31 C06         -9.5890     9.6620     0.8890 ca         1 N13      -0.146000
     32 C07         -8.6860     8.6530     0.6490 ca         1 N13      -0.069000
     33 C09         -9.1000     7.3180     0.7160 ca         1 N13       0.092400
     34 N01         -8.4610     6.1360     0.5410 nd         1 N13      -0.590100
     35 H1           0.5800     1.3750     2.1260 ha         1 N13       0.175000
     36 H2           3.9780     0.4020     4.5270 ha         1 N13       0.146000
     37 H3           4.9040    -0.9410     2.6810 ha         1 N13       0.138000
     38 H4           3.6720    -1.1340     0.5550 ha         1 N13       0.132000
     39 H5           1.8480    -0.0440    -0.8660 hn         1 N13       0.325500
     40 H6          -0.4910     0.8950    -1.8680 hc         1 N13       0.074700
     41 H7          -0.4920    -0.8740    -1.8770 hc         1 N13       0.074700
     42 H8          -2.6540     2.1210    -0.7500 ha         1 N13       0.158000
     43 H9          -2.7460    -2.0280    -1.1360 hn         1 N13       0.328700
     44 H10         -6.7990    -0.1330     0.1230 ha         1 N13       0.150000
     45 H11         -4.3820     3.3520    -0.5080 ha         1 N13       0.139000
     46 H12         -6.2920     4.7930    -0.0160 ha         1 N13       0.162000
     47 H13         -9.5320     0.5890     0.6830 hn         1 N13       0.336700
     48 H14        -11.3960     5.1230     1.0700 hn         1 N13       0.313700
     49 H15        -12.3680     7.8350     1.5110 ha         1 N13       0.128000
     50 H16        -11.6100    10.1720     1.3850 ha         1 N13       0.133000
     51 H17         -9.2670    10.6950     0.8370 ha         1 N13       0.134000
     52 H18         -7.6570     8.8910     0.4080 ha         1 N13       0.142000
@<TRIPOS>BOND
     1    10     1 2
     2     6     7 ar
     3     6     5 ar
     4     7     8 ar
     5     5     3 ar
     6     1    11 1
     7     1     9 1
     8     8     9 1
     9     8     2 ar
    10    11    12 1
    11     3     2 ar
    12     3     4 1
    13    12    13 2
    14    12    14 1
    15    13    16 1
    16    14    15 1
    17    15    16 2
    18    16    17 1
    19    17    19 ar
    20    17    18 ar
    21    19    20 ar
    22    18    22 ar
    23    20    21 ar
    24    22    21 ar
    25    22    23 1
    26    21    25 1
    27    23    24 1
    28    25    24 2
    29    25    26 1
    30    34    26 2
    31    34    33 1
    32    26    27 1
    33    33    32 ar
    34    33    28 ar
    35    32    31 ar
    36    27    28 1
    37    28    29 ar
    38    31    30 ar
    39    29    30 ar
    40     2    35 1
    41     5    36 1
    42     6    37 1
    43     7    38 1
    44     9    39 1
    45    11    40 1
    46    11    41 1
    47    13    42 1
    48    14    43 1
    49    18    44 1
    50    19    45 1
    51    20    46 1
    52    23    47 1
    53    27    48 1
    54    29    49 1
    55    30    50 1
    56    31    51 1
    57    32    52 1
@<TRIPOS>SUBSTRUCTURE
     1 N13         1 TEMP              0 ****  ****    0 ROOT
