@<TRIPOS>MOLECULE
N15
   57    61     1     0     0
SMALL
bcc


@<TRIPOS>ATOM
      1 CAA          0.0000     0.0000     0.0000 c3         1 N15       0.002400
      2 CBE          1.5300     0.0000     0.0000 c3         1 N15      -0.047700
      3 CAB          2.0410     0.0000     1.4420 c3         1 N15       0.002400
      4 CAN          2.0400    -1.2490    -0.7210 c3         1 N15      -0.040400
      5 CAM          3.5650    -1.1880    -0.8320 c3         1 N15       0.044000
      6 NAS          4.0530    -2.3850    -1.5220 ns         1 N15      -0.195900
      7 C            5.3740    -2.5490    -1.7340 c          1 N15       0.550100
      8 O            6.1580    -1.7060    -1.3540 o          1 N15      -0.607100
      9 CA           5.8750    -3.7790    -2.4440 c3         1 N15      -0.078700
     10 N            7.3350    -3.7210    -2.5500 na         1 N15       0.515400
     11 CAL          8.1980    -4.6640    -2.1190 cc         1 N15      -0.243300
     12 NAP          8.0760    -2.6790    -3.1210 nc         1 N15      -0.613800
     13 CAJ          9.3450    -2.9760    -3.0350 cd         1 N15       0.402200
     14 CAX          9.4600    -4.2300    -2.4040 cd         1 N15      -0.269300
     15 CAW         10.7230    -4.9490    -2.1030 ca         1 N15       0.080000
     16 CAK         11.9400    -4.3820    -2.4530 ca         1 N15      -0.141000
     17 CAF         10.6810    -6.1930    -1.4620 ca         1 N15      -0.156000
     18 CAI         11.8330    -6.8640    -1.1790 ca         1 N15       0.000000
     19 CBD         13.0680    -6.3110    -1.5310 ca         1 N15      -0.232900
     20 CBC         13.1210    -5.0590    -2.1700 ca         1 N15      -0.178200
     21 NAT         14.4480    -4.7770    -2.3880 na         1 N15       0.422900
     22 NAQ         15.2290    -5.8280    -1.8980 nc         1 N15      -0.662100
     23 CAZ         14.4580    -6.7550    -1.3760 cd         1 N15       0.391600
     24 CAY         14.9080    -8.0180    -0.7570 cd         1 N15       0.210500
     25 NAU         16.2130    -8.4110    -0.6300 na         1 N15       0.288700
     26 CBB         16.2100    -9.6380     0.0040 ca         1 N15      -0.277200
     27 CAH         17.2050   -10.5210     0.4010 ca         1 N15      -0.086000
     28 CAE         16.8630   -11.7000     1.0280 ca         1 N15      -0.090000
     29 CAD         15.5310   -12.0110     1.2650 ca         1 N15      -0.120000
     30 CAG         14.5370   -11.1550     0.8810 ca         1 N15      -0.040000
     31 CBA         14.8600    -9.9530     0.2440 ca         1 N15       0.063400
     32 NAR         14.1180    -8.9280    -0.2420 nc         1 N15      -0.514100
     33 H1          -0.3610     0.9020     0.4790 hc         1 N15       0.005367
     34 H2          -0.3610    -0.8660     0.5420 hc         1 N15       0.005367
     35 H3          -0.3610    -0.0370    -1.0210 hc         1 N15       0.005367
     36 H4           1.8910     0.8840    -0.5110 hc         1 N15       0.030700
     37 H5           3.0550     0.3800     1.4660 hc         1 N15       0.005367
     38 H6           1.4050     0.6310     2.0510 hc         1 N15       0.005367
     39 H7           2.0250    -1.0110     1.8310 hc         1 N15       0.005367
     40 H8           1.7540    -2.1310    -0.1610 hc         1 N15       0.017700
     41 H9           1.6070    -1.2950    -1.7130 hc         1 N15       0.017700
     42 H10          3.9970    -1.1410     0.1610 h1         1 N15       0.033200
     43 H11          3.8510    -0.3060    -1.3920 h1         1 N15       0.033200
     44 H12          3.4050    -3.0750    -1.8450 hn         1 N15       0.170500
     45 H13          5.4420    -3.8250    -3.4360 h1         1 N15       0.040700
     46 H14          5.5890    -4.6610    -1.8840 h1         1 N15       0.040700
     47 H15          7.9360    -5.5960    -1.6320 h4         1 N15       0.148000
     48 H16         10.1670    -2.3650    -3.3890 h4         1 N15       0.006100
     49 H17         11.9750    -3.3700    -2.8380 ha         1 N15       0.112000
     50 H18          9.7260    -6.6250    -1.1890 ha         1 N15       0.107000
     51 H19         11.7920    -7.8260    -0.6830 ha         1 N15       0.127000
     52 H20         14.7990    -3.9520    -2.8320 hn         1 N15       0.152700
     53 H21         17.0040    -7.9710    -1.0550 hn         1 N15       0.136700
     54 H22         18.2460   -10.2840     0.2190 ha         1 N15       0.100000
     55 H23         17.6390   -12.3890     1.3380 ha         1 N15       0.102000
     56 H24         15.2770   -12.9410     1.7590 ha         1 N15       0.104000
     57 H25         13.5000   -11.4080     1.0710 ha         1 N15       0.108000
@<TRIPOS>BOND
     1     1     2 1   
     2     1    33 1   
     3     1    34 1   
     4     1    35 1   
     5     2     3 1   
     6     2     4 1   
     7     2    36 1   
     8     3    37 1   
     9     3    38 1   
    10     3    39 1   
    11     4     5 1   
    12     4    40 1   
    13     4    41 1   
    14     5     6 1   
    15     5    42 1   
    16     5    43 1   
    17     6     7 1   
    18     6    44 1   
    19     7     8 2   
    20     7     9 1   
    21     9    10 1   
    22     9    45 1   
    23     9    46 1   
    24    10    11 1   
    25    10    12 1   
    26    11    14 2   
    27    11    47 1   
    28    12    13 2   
    29    13    14 1   
    30    13    48 1   
    31    14    15 1   
    32    15    16 ar  
    33    15    17 ar  
    34    16    20 ar  
    35    16    49 1   
    36    17    18 ar  
    37    17    50 1   
    38    18    19 ar  
    39    18    51 1   
    40    19    20 ar  
    41    19    23 1   
    42    20    21 1   
    43    21    22 1   
    44    21    52 1   
    45    22    23 2   
    46    23    24 1   
    47    24    25 1   
    48    24    32 2   
    49    25    26 1   
    50    25    53 1   
    51    26    27 ar  
    52    26    31 ar  
    53    27    28 ar  
    54    27    54 1   
    55    28    29 ar  
    56    28    55 1   
    57    29    30 ar  
    58    29    56 1   
    59    30    31 ar  
    60    30    57 1   
    61    31    32 1   
@<TRIPOS>SUBSTRUCTURE
     1 N15         1 TEMP              0 ****  ****    0 ROOT
