@<TRIPOS>MOLECULE
molecule
   57    61     1     0     0
SMALL
bcc


@<TRIPOS>ATOM
      1 CAA          0.0000     0.0000     0.0000 c3         1 N15      -0.089600
      2 CBE          1.5300     0.0000     0.0000 c3         1 N15      -0.072700
      3 CAB          2.0410     0.0000     1.4420 c3         1 N15      -0.089600
      4 CAN          2.0400    -1.2490    -0.7210 c3         1 N15      -0.096400
      5 CAM          3.5650    -1.1880    -0.8320 c3         1 N15       0.112000
      6 NAS          4.0530    -2.3850    -1.5220 ns         1 N15      -0.591900
      7 C            5.3740    -2.5490    -1.7340 c          1 N15       0.637100
      8 O            6.1580    -1.7060    -1.3540 o          1 N15      -0.563100
      9 CA           5.8750    -3.7790    -2.4440 c3         1 N15       0.003300
     10 N            7.3350    -3.7210    -2.5500 na         1 N15       0.078400
     11 CAL          8.1980    -4.6640    -2.1190 cc         1 N15      -0.091300
     12 NAP          8.0760    -2.6790    -3.1210 nc         1 N15      -0.475800
     13 CAJ          9.3450    -2.9760    -3.0350 cd         1 N15       0.346200
     14 CAX          9.4600    -4.2300    -2.4040 cd         1 N15      -0.265300
     15 CAW         10.7230    -4.9490    -2.1030 ca         1 N15       0.068000
     16 CAK         11.9400    -4.3820    -2.4530 ca         1 N15      -0.170000
     17 CAF         10.6810    -6.1930    -1.4620 ca         1 N15      -0.175000
     18 CAI         11.8330    -6.8640    -1.1790 ca         1 N15      -0.034000
     19 CBD         13.0680    -6.3110    -1.5310 ca         1 N15      -0.225900
     20 CBC         13.1210    -5.0590    -2.1700 ca         1 N15      -0.012200
     21 NAT         14.4480    -4.7770    -2.3880 na         1 N15      -0.046100
     22 NAQ         15.2290    -5.8280    -1.8980 nd         1 N15      -0.510100
     23 CAZ         14.4580    -6.7550    -1.3760 cc         1 N15       0.363600
     24 CAY         14.9080    -8.0180    -0.7570 cc         1 N15       0.425500
     25 NAU         16.2130    -8.4110    -0.6300 na         1 N15      -0.249300
     26 CBB         16.2100    -9.6380     0.0040 ca         1 N15      -0.089200
     27 CAH         17.2050   -10.5210     0.4010 ca         1 N15      -0.127000
     28 CAE         16.8630   -11.7000     1.0280 ca         1 N15      -0.112000
     29 CAD         15.5310   -12.0110     1.2650 ca         1 N15      -0.146000
     30 CAG         14.5370   -11.1550     0.8810 ca         1 N15      -0.069000
     31 CBA         14.8600    -9.9530     0.2440 ca         1 N15       0.091400
     32 NAR         14.1180    -8.9280    -0.2420 nd         1 N15      -0.592100
     33 H1          -0.3610     0.9020     0.4790 hc         1 N15       0.036367
     34 H2          -0.3610    -0.8660     0.5420 hc         1 N15       0.036367
     35 H3          -0.3610    -0.0370    -1.0210 hc         1 N15       0.036367
     36 H4           1.8910     0.8840    -0.5110 hc         1 N15       0.054700
     37 H5           3.0550     0.3800     1.4660 hc         1 N15       0.036367
     38 H6           1.4050     0.6310     2.0510 hc         1 N15       0.036367
     39 H7           2.0250    -1.0110     1.8310 hc         1 N15       0.036367
     40 H8           1.7540    -2.1310    -0.1610 hc         1 N15       0.045200
     41 H9           1.6070    -1.2950    -1.7130 hc         1 N15       0.045200
     42 H10          3.9970    -1.1410     0.1610 h1         1 N15       0.058200
     43 H11          3.8510    -0.3060    -1.3920 h1         1 N15       0.058200
     44 H12          3.4050    -3.0750    -1.8450 hn         1 N15       0.309500
     45 H13          5.4420    -3.8250    -3.4360 h1         1 N15       0.075700
     46 H14          5.5890    -4.6610    -1.8840 h1         1 N15       0.075700
     47 H15          7.9360    -5.5960    -1.6320 h4         1 N15       0.172000
     48 H16         10.1670    -2.3650    -3.3890 h4         1 N15       0.051100
     49 H17         11.9750    -3.3700    -2.8380 ha         1 N15       0.133000
     50 H18          9.7260    -6.6250    -1.1890 ha         1 N15       0.129000
     51 H19         11.7920    -7.8260    -0.6830 ha         1 N15       0.159000
     52 H20         14.7990    -3.9520    -2.8320 hn         1 N15       0.335700
     53 H21         17.0040    -7.9710    -1.0550 hn         1 N15       0.313700
     54 H22         18.2460   -10.2840     0.2190 ha         1 N15       0.128000
     55 H23         17.6390   -12.3890     1.3380 ha         1 N15       0.133000
     56 H24         15.2770   -12.9410     1.7590 ha         1 N15       0.133000
     57 H25         13.5000   -11.4080     1.0710 ha         1 N15       0.141000
@<TRIPOS>BOND
     1    28    27 ar
     2    28    29 ar
     3    27    26 ar
     4    29    30 ar
     5    26    25 1
     6    26    31 ar
     7    30    31 ar
     8    25    24 1
     9    31    32 1
    10    24    32 2
    11    24    23 1
    12    22    23 2
    13    22    21 1
    14    23    19 1
    15    21    20 1
    16    19    20 ar
    17    19    18 ar
    18    20    16 ar
    19    18    17 ar
    20    16    15 ar
    21    17    15 ar
    22    15    14 1
    23    13    14 1
    24    13    12 2
    25    14    11 2
    26    11    10 1
    27    12    10 1
    28    10     9 1
    29     9     7 1
    30     6     7 1
    31     6     5 1
    32     7     8 2
    33     5     4 1
    34     4     2 1
    35     1     2 1
    36     2     3 1
    37     1    33 1
    38     1    34 1
    39     1    35 1
    40     2    36 1
    41     3    37 1
    42     3    38 1
    43     3    39 1
    44     4    40 1
    45     4    41 1
    46     5    42 1
    47     5    43 1
    48     6    44 1
    49     9    45 1
    50     9    46 1
    51    11    47 1
    52    13    48 1
    53    16    49 1
    54    17    50 1
    55    18    51 1
    56    21    52 1
    57    25    53 1
    58    27    54 1
    59    28    55 1
    60    29    56 1
    61    30    57 1
@<TRIPOS>SUBSTRUCTURE
     1 N15         1 TEMP              0 ****  ****    0 ROOT
