@<TRIPOS>MOLECULE
molecule
   41    43     1     0     0
SMALL
bcc


@<TRIPOS>ATOM
      1 CD1          0.0000     0.0000     0.0000 ca         1 N16      -0.126500
      2 CE1          1.3820     0.0000     0.0000 ca         1 N16      -0.124500
      3 CZ           2.0740     0.0000     1.1980 ca         1 N16      -0.128000
      4 CE2          1.3820    -0.0020     2.3940 ca         1 N16      -0.124500
      5 CD2         -0.0000    -0.0020     2.3940 ca         1 N16      -0.126500
      6 CG          -0.6910     0.0050     1.1970 ca         1 N16      -0.091300
      7 CB          -2.1980     0.0040     1.1970 c3         1 N16      -0.040100
      8 CA          -2.7090     1.4460     1.2050 c3         1 N16       0.006700
      9 C           -4.2170     1.4630     1.1020 c          1 N16       0.592300
     10 O           -4.8950     1.0250     0.1950 o          1 N16      -0.528100
     11 N           -2.3750     2.0920     2.4780 ns         1 N16      -0.578900
     12 CAR         -3.5090     2.4640     3.0940 c          1 N16       0.720700
     13 OAB         -3.5600     3.0250     4.1720 o          1 N16      -0.643500
     14 CAT         -4.6780     2.0980     2.2840 ce         1 N16      -0.398400
     15 CAQ         -6.0020     2.3340     2.6160 c2         1 N16       0.304800
     16 CAA         -7.1020     1.9010     1.6820 c3         1 N16      -0.088900
     17 NAO         -6.3060     2.9490     3.7770 nu         1 N16      -0.675400
     18 CAV         -7.0780     2.2890     4.7370 ca         1 N16       0.183600
     19 CAL         -7.3990     0.9480     4.5700 ca         1 N16      -0.183500
     20 CAH         -8.1630     0.2990     5.5200 ca         1 N16      -0.090000
     21 CAE         -8.6070     0.9820     6.6380 ca         1 N16      -0.166000
     22 CAI         -8.2880     2.3170     6.8080 ca         1 N16      -0.090000
     23 CAM         -7.5200     2.9710     5.8640 ca         1 N16      -0.183500
     24 HD1         -0.5420     0.0030    -0.9380 ha         1 N16       0.134000
     25 HE1          1.9240    -0.0010    -0.9380 ha         1 N16       0.131500
     26 HZ           3.1570    -0.0000     1.1980 ha         1 N16       0.131000
     27 HE2          1.9230    -0.0050     3.3330 ha         1 N16       0.131500
     28 HD2         -0.5420    -0.0010     3.3320 ha         1 N16       0.134000
     29 HB          -2.5600    -0.5120     2.0780 hc         1 N16       0.067200
     30 HBA         -2.5590    -0.5010     0.3090 hc         1 N16       0.067200
     31 HA          -2.2760     2.0040     0.3840 h1         1 N16       0.081700
     32 HN          -1.4500     2.2340     2.8320 hn         1 N16       0.352500
     33 HAA         -8.0580     2.2240     2.0770 hc         1 N16       0.070367
     34 HAAA        -6.9440     2.3470     0.7080 hc         1 N16       0.070367
     35 HAAB        -7.0950     0.8220     1.5910 hc         1 N16       0.070367
     36 HNAO        -6.0140     3.8940     3.9340 hn         1 N16       0.472800
     37 HAL         -7.0520     0.4130     3.6950 ha         1 N16       0.135000
     38 HAH         -8.4140    -0.7470     5.3900 ha         1 N16       0.132000
     39 HAE         -9.2070     0.4710     7.3810 ha         1 N16       0.131000
     40 HAI         -8.6360     2.8490     7.6850 ha         1 N16       0.132000
     41 HAM         -7.2710     4.0170     5.9970 ha         1 N16       0.135000
@<TRIPOS>BOND
     1    22    23 ar
     2    22    21 ar
     3    23    18 ar
     4    21    20 ar
     5    18    17 1
     6    18    19 ar
     7    17    15 1
     8    13    12 2
     9    20    19 ar
    10    15    16 1
    11    15    14 2
    12    12    14 1
    13    12    11 1
    14    14     9 1
    15    11     8 1
    16     9     8 1
    17     9    10 2
    18     8     7 1
    19     7     6 1
    20     5     6 ar
    21     5     4 ar
    22     6     1 ar
    23     1     2 ar
    24     4     3 ar
    25     3     2 ar
    26     1    24 1
    27     2    25 1
    28     3    26 1
    29     4    27 1
    30     5    28 1
    31     7    29 1
    32     7    30 1
    33     8    31 1
    34    11    32 1
    35    16    33 1
    36    16    34 1
    37    16    35 1
    38    17    36 1
    39    19    37 1
    40    20    38 1
    41    21    39 1
    42    22    40 1
    43    23    41 1
@<TRIPOS>SUBSTRUCTURE
     1 N16         1 TEMP              0 ****  ****    0 ROOT
