@<TRIPOS>MOLECULE
N16
   41    43     1     0     0
SMALL
bcc


@<TRIPOS>ATOM
      1 CD1          0.0000     0.0000     0.0000 ca         1 N16      -0.100000
      2 CE1          1.3820     0.0000     0.0000 ca         1 N16      -0.095500
      3 CZ           2.0740     0.0000     1.1980 ca         1 N16      -0.100000
      4 CE2          1.3820    -0.0020     2.3940 ca         1 N16      -0.095500
      5 CD2         -0.0000    -0.0020     2.3940 ca         1 N16      -0.100000
      6 CG          -0.6910     0.0050     1.1970 ca         1 N16      -0.104300
      7 CB          -2.1980     0.0040     1.1970 c3         1 N16       0.028900
      8 CA          -2.7090     1.4460     1.2050 c3         1 N16      -0.088300
      9 C           -4.2170     1.4630     1.1020 c          1 N16       0.649300
     10 O           -4.8950     1.0250     0.1950 o          1 N16      -0.560100
     11 N           -2.3750     2.0920     2.4780 ns         1 N16      -0.189900
     12 CAR         -3.5090     2.4640     3.0940 c          1 N16       0.653700
     13 OAB         -3.5600     3.0250     4.1720 o          1 N16      -0.693500
     14 CAT         -4.6780     2.0980     2.2840 ce         1 N16      -0.431400
     15 CAQ         -6.0020     2.3340     2.6160 c2         1 N16       0.163800
     16 CAA         -7.1020     1.9010     1.6820 c3         1 N16       0.008100
     17 NAO         -6.3060     2.9490     3.7770 nu         1 N16      -0.205400
     18 CAV         -7.0780     2.2890     4.7370 ca         1 N16       0.030600
     19 CAL         -7.3990     0.9480     4.5700 ca         1 N16      -0.161000
     20 CAH         -8.1630     0.2990     5.5200 ca         1 N16      -0.058500
     21 CAE         -8.6070     0.9820     6.6380 ca         1 N16      -0.140000
     22 CAI         -8.2880     2.3170     6.8080 ca         1 N16      -0.058500
     23 CAM         -7.5200     2.9710     5.8640 ca         1 N16      -0.161000
     24 HD1         -0.5420     0.0030    -0.9380 ha         1 N16       0.109500
     25 HE1          1.9240    -0.0010    -0.9380 ha         1 N16       0.104500
     26 HZ           3.1570    -0.0000     1.1980 ha         1 N16       0.104000
     27 HE2          1.9230    -0.0050     3.3330 ha         1 N16       0.104500
     28 HD2         -0.5420    -0.0010     3.3320 ha         1 N16       0.109500
     29 HB          -2.5600    -0.5120     2.0780 hc         1 N16       0.035200
     30 HBA         -2.5590    -0.5010     0.3090 hc         1 N16       0.035200
     31 HA          -2.2760     2.0040     0.3840 h1         1 N16       0.051700
     32 HN          -1.4500     2.2340     2.8320 hn         1 N16       0.208500
     33 HAA         -6.9440     2.3470     0.7080 hc         1 N16       0.033700
     34 HAAA        -7.0950     0.8220     1.5910 hc         1 N16       0.033700
     35 HAAB        -8.0580     2.2240     2.0760 hc         1 N16       0.033700
     36 HNAO        -6.0130     3.8930     3.9340 hn         1 N16       0.308800
     37 HAL         -7.0520     0.4130     3.6950 ha         1 N16       0.115000
     38 HAH         -8.4140    -0.7470     5.3900 ha         1 N16       0.101000
     39 HAE         -9.2070     0.4710     7.3810 ha         1 N16       0.104000
     40 HAI         -8.6360     2.8490     7.6850 ha         1 N16       0.101000
     41 HAM         -7.2710     4.0170     5.9970 ha         1 N16       0.115000
@<TRIPOS>BOND
     1     1     2 ar  
     2     1     6 ar  
     3     1    24 1   
     4     2     3 ar  
     5     2    25 1   
     6     3     4 ar  
     7     3    26 1   
     8     4     5 ar  
     9     4    27 1   
    10     5     6 ar  
    11     5    28 1   
    12     6     7 1   
    13     7     8 1   
    14     7    29 1   
    15     7    30 1   
    16     8     9 1   
    17     8    11 1   
    18     8    31 1   
    19     9    10 2   
    20     9    14 1   
    21    11    12 1   
    22    11    32 1   
    23    12    13 2   
    24    12    14 1   
    25    14    15 2   
    26    15    16 1   
    27    15    17 1   
    28    16    33 1   
    29    16    34 1   
    30    16    35 1   
    31    17    18 1   
    32    17    36 1   
    33    18    19 ar  
    34    18    23 ar  
    35    19    20 ar  
    36    19    37 1   
    37    20    21 ar  
    38    20    38 1   
    39    21    22 ar  
    40    21    39 1   
    41    22    23 ar  
    42    22    40 1   
    43    23    41 1   
@<TRIPOS>SUBSTRUCTURE
     1 N16         1 TEMP              0 ****  ****    0 ROOT
