@<TRIPOS>MOLECULE
molecule
   46    49     1     0     0
SMALL
bcc


@<TRIPOS>ATOM
      1 O1           0.0000     0.0000     0.0000 o          1 N17      -0.590100
      2 C9           1.2160     0.0000     0.0000 c          1 N17       0.678700
      3 C8           1.9550     0.0000     1.2810 ca         1 N17      -0.124600
      4 C7           3.3500    -0.0000     1.2840 ca         1 N17      -0.120000
      5 C6           4.0380     0.0000     2.4810 ca         1 N17      -0.110000
      6 C5           3.3480     0.0010     3.6790 ca         1 N17      -0.124000
      7 C21          1.2590     0.0070     2.4900 ca         1 N17      -0.090000
      8 C4           1.9590     0.0010     3.6860 ca         1 N17       0.012800
      9 N1           1.2640     0.0070     4.9050 na         1 N17      -0.113000
     10 C3           1.8180     0.0080     6.1590 cc         1 N17      -0.274600
     11 C22         -0.0840     0.0190     5.0650 cc         1 N17       0.410400
     12 N4          -0.3510     0.0220     6.3430 nd         1 N17      -0.684000
     13 C2           0.7960     0.0160     7.0370 cd         1 N17       0.330600
     14 C1           0.9220     0.0190     8.5380 c3         1 N17      -0.108400
     15 N2           1.8900    -0.0060    -1.1660 ns         1 N17      -0.470100
     16 C10          1.1980    -0.1630    -2.3730 ca         1 N17       0.051600
     17 C20         -0.1080     0.2950    -2.4910 ca         1 N17      -0.138500
     18 C19         -0.7880     0.1400    -3.6820 ca         1 N17      -0.121000
     19 C13         -0.1690    -0.4730    -4.7610 ca         1 N17       0.078100
     20 C12          1.1360    -0.9310    -4.6450 ca         1 N17      -0.121000
     21 C11          1.8200    -0.7720    -3.4560 ca         1 N17      -0.138500
     22 O2          -0.8420    -0.6300    -5.9320 os         1 N17      -0.238200
     23 C14         -0.4450     0.1080    -7.0000 ca         1 N17       0.168100
     24 C18         -1.0050    -0.0980    -8.2590 ca         1 N17      -0.309800
     25 C17         -0.5730     0.6730    -9.3180 ca         1 N17       0.449200
     26 N3           0.3560     1.5940    -9.1510 nb         1 N17      -0.717000
     27 C16          0.9110     1.8180    -7.9740 ca         1 N17       0.449200
     28 C15          0.5300     1.0930    -6.8640 ca         1 N17      -0.309800
     29 H1           3.8940    -0.0010     0.3470 ha         1 N17       0.129000
     30 H2           5.1210     0.0000     2.4810 ha         1 N17       0.143000
     31 H3           3.8930    -0.0020     4.6150 ha         1 N17       0.146000
     32 H4           0.1760     0.0070     2.4940 ha         1 N17       0.166000
     33 H5           2.8740     0.0020     6.3980 h4         1 N17       0.176000
     34 H6          -0.8160     0.0220     4.2660 h5         1 N17       0.073100
     35 H7           1.4640     0.9020     8.8530 hc         1 N17       0.047700
     36 H8          -0.0660     0.0240     8.9830 hc         1 N17       0.047700
     37 H9           1.4570    -0.8670     8.8580 hc         1 N17       0.047700
     38 H10          2.8800     0.1350    -1.1720 hn         1 N17       0.328500
     39 H11         -0.5920     0.7730    -1.6480 ha         1 N17       0.159000
     40 H12         -1.8070     0.4970    -3.7740 ha         1 N17       0.150000
     41 H13          1.6200    -1.4080    -5.4890 ha         1 N17       0.150000
     42 H14          2.8390    -1.1300    -3.3650 ha         1 N17       0.159000
     43 H15         -1.7680    -0.8520    -8.4040 ha         1 N17       0.150500
     44 H16         -1.0040     0.5200   -10.3000 h4         1 N17       0.025100
     45 H17          1.6690     2.5860    -7.8780 h4         1 N17       0.025100
     46 H18          0.9890     1.2820    -5.9010 ha         1 N17       0.150500
@<TRIPOS>BOND
     1    27    26 ar
     2    27    28 ar
     3    26    25 ar
     4    25    24 ar
     5    28    23 ar
     6    24    23 ar
     7    23    22 1
     8    22    19 1
     9    19    20 ar
    10    19    18 ar
    11    20    21 ar
    12    18    17 ar
    13    21    16 ar
    14    17    16 ar
    15    16    15 1
    16    15     2 1
    17     1     2 2
    18     2     3 1
    19     3     4 ar
    20     3     7 ar
    21     4     5 ar
    22     7     8 ar
    23     5     6 ar
    24     8     6 ar
    25     8     9 1
    26    10     9 1
    27    10    13 2
    28     9    11 1
    29    14    13 1
    30    13    12 1
    31    11    12 2
    32     4    29 1
    33     5    30 1
    34     6    31 1
    35     7    32 1
    36    10    33 1
    37    11    34 1
    38    14    35 1
    39    14    36 1
    40    14    37 1
    41    15    38 1
    42    17    39 1
    43    18    40 1
    44    20    41 1
    45    21    42 1
    46    24    43 1
    47    25    44 1
    48    27    45 1
    49    28    46 1
@<TRIPOS>SUBSTRUCTURE
     1 N17         1 TEMP              0 ****  ****    0 ROOT
