@<TRIPOS>MOLECULE
N17
   46    49     1     0     0
SMALL
bcc


@<TRIPOS>ATOM
      1 O1           0.0000     0.0000     0.0000 o          1 N17      -0.632100
      2 C9           1.2160     0.0000     0.0000 c          1 N17       0.585700
      3 C8           1.9550     0.0000     1.2810 ca         1 N17      -0.137600
      4 C7           3.3500    -0.0000     1.2840 ca         1 N17      -0.090000
      5 C6           4.0380     0.0000     2.4810 ca         1 N17      -0.081000
      6 C5           3.3480     0.0010     3.6790 ca         1 N17      -0.089000
      7 C21          1.2590     0.0070     2.4900 ca         1 N17      -0.048000
      8 C4           1.9590     0.0010     3.6860 ca         1 N17      -0.168200
      9 N1           1.2640     0.0070     4.9050 na         1 N17       0.414000
     10 C3           1.8180     0.0080     6.1590 cc         1 N17      -0.451600
     11 C22         -0.0840     0.0190     5.0650 cc         1 N17       0.213400
     12 N4          -0.3510     0.0220     6.3430 nd         1 N17      -0.601000
     13 C2           0.7960     0.0160     7.0370 cd         1 N17       0.307600
     14 C1           0.9220     0.0190     8.5380 c3         1 N17       0.001600
     15 N2           1.8900    -0.0060    -1.1660 ns         1 N17      -0.024100
     16 C10          1.1980    -0.1630    -2.3730 ca         1 N17      -0.100400
     17 C20         -0.1080     0.2950    -2.4910 ca         1 N17      -0.110000
     18 C19         -0.7880     0.1400    -3.6820 ca         1 N17      -0.099500
     19 C13         -0.1690    -0.4730    -4.7610 ca         1 N17       0.086100
     20 C12          1.1360    -0.9310    -4.6450 ca         1 N17      -0.099500
     21 C11          1.8200    -0.7720    -3.4560 ca         1 N17      -0.110000
     22 O2          -0.8420    -0.6300    -5.9320 os         1 N17      -0.210200
     23 C14         -0.4450     0.1080    -7.0000 ca         1 N17       0.174100
     24 C18         -1.0050    -0.0980    -8.2590 ca         1 N17      -0.293800
     25 C17         -0.5730     0.6730    -9.3180 ca         1 N17       0.442700
     26 N3           0.3560     1.5940    -9.1510 nb         1 N17      -0.617000
     27 C16          0.9110     1.8180    -7.9740 ca         1 N17       0.442700
     28 C15          0.5300     1.0930    -6.8640 ca         1 N17      -0.293800
     29 H1           3.8940    -0.0010     0.3470 ha         1 N17       0.104000
     30 H2           5.1210     0.0000     2.4810 ha         1 N17       0.111000
     31 H3           3.8930    -0.0020     4.6150 ha         1 N17       0.120000
     32 H4           0.1760     0.0070     2.4940 ha         1 N17       0.142000
     33 H5           2.8740     0.0020     6.3980 h4         1 N17       0.157000
     34 H6          -0.8160     0.0220     4.2660 h5         1 N17       0.032100
     35 H7           1.4640     0.9020     8.8530 hc         1 N17       0.007367
     36 H8          -0.0660     0.0240     8.9830 hc         1 N17       0.007367
     37 H9           1.4570    -0.8670     8.8580 hc         1 N17       0.007367
     38 H10          2.8800     0.1350    -1.1720 hn         1 N17       0.173500
     39 H11         -0.5920     0.7730    -1.6480 ha         1 N17       0.135500
     40 H12         -1.8070     0.4970    -3.7740 ha         1 N17       0.119500
     41 H13          1.6200    -1.4080    -5.4890 ha         1 N17       0.119500
     42 H14          2.8390    -1.1300    -3.3650 ha         1 N17       0.135500
     43 H15         -1.7680    -0.8520    -8.4040 ha         1 N17       0.130000
     44 H16         -1.0040     0.5200   -10.3000 h4         1 N17      -0.021400
     45 H17          1.6690     2.5860    -7.8780 h4         1 N17      -0.021400
     46 H18          0.9890     1.2820    -5.9010 ha         1 N17       0.130000
@<TRIPOS>BOND
     1     1     2 2   
     2     2     3 1   
     3     2    15 1   
     4     3     4 ar  
     5     3     7 ar  
     6     4     5 ar  
     7     4    29 1   
     8     5     6 ar  
     9     5    30 1   
    10     6     8 ar  
    11     6    31 1   
    12     7     8 ar  
    13     7    32 1   
    14     8     9 1   
    15     9    10 1   
    16     9    11 1   
    17    10    13 2   
    18    10    33 1   
    19    11    12 2   
    20    11    34 1   
    21    12    13 1   
    22    13    14 1   
    23    14    35 1   
    24    14    36 1   
    25    14    37 1   
    26    15    16 1   
    27    15    38 1   
    28    16    17 ar  
    29    16    21 ar  
    30    17    18 ar  
    31    17    39 1   
    32    18    19 ar  
    33    18    40 1   
    34    19    20 ar  
    35    19    22 1   
    36    20    21 ar  
    37    20    41 1   
    38    21    42 1   
    39    22    23 1   
    40    23    24 ar  
    41    23    28 ar  
    42    24    25 ar  
    43    24    43 1   
    44    25    26 ar  
    45    25    44 1   
    46    26    27 ar  
    47    27    28 ar  
    48    27    45 1   
    49    28    46 1   
@<TRIPOS>SUBSTRUCTURE
     1 N17         1 TEMP              0 ****  ****    0 ROOT
