@<TRIPOS>MOLECULE
N19
   47    49     1     0     0
SMALL
bcc


@<TRIPOS>ATOM
      1 C3           0.0000     0.0000     0.0000 ca         1 N19      -0.081000
      2 C4           1.3790     0.0000     0.0000 ca         1 N19       0.007500
      3 C5           2.0750     0.0000     1.1960 ca         1 N19      -0.221500
      4 C6           1.3930    -0.0000     2.4000 ca         1 N19       0.007500
      5 C7           0.0130    -0.0010     2.4140 ca         1 N19      -0.081000
      6 C8          -0.6940     0.0050     1.2110 ca         1 N19      -0.028600
      7 C9          -2.1730     0.0040     1.2190 c          1 N19       0.581700
      8 O11         -2.7760    -0.7900     1.9130 o          1 N19      -0.602100
      9 N18         -2.8510     0.8830     0.4560 n          1 N19      -0.132800
     10 C19         -2.1430     1.7960    -0.4550 c3         1 N19      -0.019000
     11 C20         -2.6360     3.2240    -0.1940 c3         1 N19       0.106500
     12 N21         -4.1020     3.2580    -0.2950 n7         1 N19      -0.563200
     13 C22         -4.7260     2.4170     0.7340 c3         1 N19       0.130800
     14 C23         -4.3190     0.9520     0.5060 c3         1 N19       0.011000
     15 S24          3.8370     0.0010     1.1870 sy         1 N19       0.934200
     16 O25          4.2450    -0.5440     2.4340 o          1 N19      -0.492800
     17 O27          4.2320    -0.5450    -0.0650 o          1 N19      -0.492800
     18 N28          4.3270     1.5810     1.1830 nz         1 N19      -0.133500
     19 C41         -2.0300     4.1710    -1.2310 c3         1 N19       0.044900
     20 C43         -2.4160     5.5900    -0.9000 ca         1 N19      -0.096300
     21 C44         -1.6100     6.3510    -0.0750 ca         1 N19      -0.091000
     22 C45         -1.9630     7.6530     0.2280 ca         1 N19      -0.093500
     23 C46         -3.1230     8.1930    -0.2950 ca         1 N19      -0.090000
     24 C47         -3.9290     7.4330    -1.1220 ca         1 N19      -0.093500
     25 C48         -3.5720     6.1330    -1.4290 ca         1 N19      -0.091000
     26 H1          -0.5410    -0.1010    -0.9330 ha         1 N19       0.144500
     27 H2           1.9190    -0.0070    -0.9390 ha         1 N19       0.128500
     28 H3           1.9420    -0.0050     3.3330 ha         1 N19       0.128500
     29 H4          -0.5200    -0.0740     3.3540 ha         1 N19       0.144500
     30 H5          -2.3540     1.5210    -1.4810 h1         1 N19       0.031700
     31 H6          -1.0780     1.7400    -0.2690 h1         1 N19       0.031700
     32 H7          -2.3370     3.5310     0.8010 h1         1 N19       0.045700
     33 H8          -4.3820     2.9400    -1.2010 hn         1 N19       0.261800
     34 H10         -4.3910     2.7360     1.7140 h1         1 N19       0.039200
     35 H11         -5.8040     2.5060     0.6680 h1         1 N19       0.039200
     36 H12         -4.7320     0.6010    -0.4320 h1         1 N19       0.048700
     37 H13         -4.6840     0.3410     1.3230 h1         1 N19       0.048700
     38 H14          3.9790     2.0410     2.0010 hn         1 N19       0.313800
     39 H15          5.3270     1.6200     1.1790 hn         1 N19       0.313800
     40 H16         -0.9510     4.0780    -1.2180 hc         1 N19       0.014200
     41 H17         -2.4030     3.9150    -2.2150 hc         1 N19       0.014200
     42 H18         -0.7010     5.9270     0.3360 ha         1 N19       0.097500
     43 H19         -1.3320     8.2500     0.8760 ha         1 N19       0.106000
     44 H20         -3.4010     9.2130    -0.0570 ha         1 N19       0.108000
     45 H21         -4.8360     7.8580    -1.5340 ha         1 N19       0.106000
     46 H22         -4.2030     5.5370    -2.0770 ha         1 N19       0.097500
     47 H283         3.9770     2.0380     0.3640 hn         1 N19       0.313800
@<TRIPOS>BOND
     1     1     2 ar  
     2     1     6 ar  
     3     1    26 1   
     4     2     3 ar  
     5     2    27 1   
     6     3     4 ar  
     7     3    15 1   
     8     4     5 ar  
     9     4    28 1   
    10     5     6 ar  
    11     5    29 1   
    12     6     7 1   
    13     7     8 2   
    14     7     9 1   
    15     9    10 1   
    16     9    14 1   
    17    10    11 1   
    18    10    30 1   
    19    10    31 1   
    20    11    12 1   
    21    11    19 1   
    22    11    32 1   
    23    12    13 1   
    24    12    33 1   
    25    13    14 1   
    26    13    34 1   
    27    13    35 1   
    28    14    36 1   
    29    14    37 1   
    30    15    16 2   
    31    15    17 2   
    32    15    18 1   
    33    18    38 1   
    34    18    39 1   
    35    18    47 1   
    36    19    20 1   
    37    19    40 1   
    38    19    41 1   
    39    20    21 ar  
    40    20    25 ar  
    41    21    22 ar  
    42    21    42 1   
    43    22    23 ar  
    44    22    43 1   
    45    23    24 ar  
    46    23    44 1   
    47    24    25 ar  
    48    24    45 1   
    49    25    46 1   
@<TRIPOS>SUBSTRUCTURE
     1 N19         1 TEMP              0 ****  ****    0 ROOT
