@<TRIPOS>MOLECULE
molecule
   58    61     1     0     0
SMALL
bcc


@<TRIPOS>ATOM
      1 C01          0.0000     0.0000     0.0000 c3         1 N1D       0.126700
      2 O05          1.4280     0.0000     0.0000 os         1 N1D      -0.311900
      3 C06          2.0470     0.0000     1.2110 ca         1 N1D       0.123100
      4 C07          1.2920    -0.0010     2.3740 ca         1 N1D      -0.190000
      5 C09          1.9160    -0.0000     3.6040 ca         1 N1D      -0.114000
      6 C11          3.3070    -0.0000     3.6810 ca         1 N1D      -0.052800
      7 C12          4.0670    -0.0010     2.5130 ca         1 N1D      -0.178000
      8 C14          3.4380    -0.0050     1.2810 ca         1 N1D       0.117100
      9 O15          4.1770    -0.0100     0.1400 os         1 N1D      -0.310900
     10 C16          5.5980    -0.0170     0.2860 c3         1 N1D       0.126700
     11 C20          3.9790     0.0000     5.0040 cc         1 N1D      -0.087400
     12 C21          4.7300    -1.0640     5.3880 cd         1 N1D       0.020600
     13 N23          5.3560    -1.0920     6.5950 n          1 N1D      -0.333000
     14 C24          6.1520    -2.2700     6.9520 c3         1 N1D       0.085300
     15 C28          5.2720    -0.0780     7.4700 c          1 N1D       0.718100
     16 O29          5.8530    -0.1490     8.5390 o          1 N1D      -0.632500
     17 C30          4.4800     1.1220     7.1430 cd         1 N1D      -0.205600
     18 C31          4.2590     2.2780     7.8930 cd         1 N1D      -0.020000
     19 C33          3.4820     3.2060     7.3130 cc         1 N1D      -0.134700
     20 S34          2.9580     2.6640     5.7270 ss         1 N1D      -0.077800
     21 C35          3.8390     1.1530     5.9010 cc         1 N1D       0.066100
     22 C36          3.1190     4.4910     7.9190 c          1 N1D       0.710700
     23 O37          3.9170     5.0740     8.6290 o          1 N1D      -0.593100
     24 N38          1.9040     5.0260     7.6890 n          1 N1D      -0.488800
     25 C39          0.8830     4.2720     6.9470 c3         1 N1D       0.089500
     26 C42         -0.3850     4.1870     7.8060 c3         1 N1D       0.217300
     27 N45         -0.7130     5.5340     8.2920 n3         1 N1D      -0.820500
     28 C46          0.3070     6.2870     9.0350 c3         1 N1D       0.217300
     29 C49          1.5730     6.3710     8.1810 c3         1 N1D       0.089500
     30 S52         -2.2070     6.1910     8.0110 s6         1 N1D       1.324900
     31 C53         -3.2030     5.6830     9.4380 c3         1 N1D      -0.248300
     32 O57         -1.9820     7.5940     8.0330 o          1 N1D      -0.627800
     33 O58         -2.6580     5.5400     6.8300 o          1 N1D      -0.627800
     34 H011        -0.3610    -0.8850     0.5100 h1         1 N1D       0.041700
     35 H012        -0.3610     0.8840     0.5110 h1         1 N1D       0.041700
     36 H013        -0.3610     0.0000    -1.0210 h1         1 N1D       0.041700
     37 H07          0.2110    -0.0010     2.3160 ha         1 N1D       0.144000
     38 H09          1.3240    -0.0000     4.5110 ha         1 N1D       0.137000
     39 H12          5.1490    -0.0030     2.5700 ha         1 N1D       0.145000
     40 H161         5.9040    -0.9200     0.8000 h1         1 N1D       0.041367
     41 H162         6.0630     0.0170    -0.6920 h1         1 N1D       0.041367
     42 H163         5.9060     0.8480     0.8620 h1         1 N1D       0.041367
     43 H21          4.8310    -1.9100     4.7190 h4         1 N1D       0.164000
     44 H241         7.2060    -2.0260     6.8920 h1         1 N1D       0.057033
     45 H242         5.9090    -2.5780     7.9610 h1         1 N1D       0.057033
     46 H243         5.9300    -3.0780     6.2650 h1         1 N1D       0.057033
     47 H31          4.6870     2.4180     8.8780 ha         1 N1D       0.181000
     48 H391         1.2490     3.2730     6.7410 h1         1 N1D       0.070950
     49 H392         0.6590     4.7820     6.0180 h1         1 N1D       0.070950
     50 H491         1.3990     7.0310     7.3400 h1         1 N1D       0.070950
     51 H492         2.3910     6.7480     8.7830 h1         1 N1D       0.070950
     52 H421        -0.2090     3.5300     8.6490 h1         1 N1D       0.063450
     53 H422        -1.2040     3.8080     7.2070 h1         1 N1D       0.063450
     54 H461        -0.0580     7.2870     9.2410 h1         1 N1D       0.063450
     55 H462         0.5300     5.7780     9.9650 h1         1 N1D       0.063450
     56 H531        -3.2500     4.6010     9.4790 h1         1 N1D       0.097367
     57 H532        -2.7490     6.0590    10.3480 h1         1 N1D       0.097367
     58 H533        -4.2040     6.0840     9.3410 h1         1 N1D       0.097367
@<TRIPOS>BOND
     1     1     2 1
     2     2     3 1
     3     3     4 ar
     4     3     8 ar
     5     4     5 ar
     6     5     6 ar
     7     6     7 ar
     8     6    11 1
     9     7     8 ar
    10     8     9 1
    11     9    10 1
    12    11    12 2
    13    11    21 1
    14    12    13 1
    15    13    14 1
    16    13    15 1
    17    15    16 2
    18    15    17 1
    19    17    18 1
    20    17    21 2
    21    18    19 2
    22    19    20 1
    23    19    22 1
    24    20    21 1
    25    22    23 2
    26    22    24 1
    27    24    25 1
    28    24    29 1
    29    25    26 1
    30    26    27 1
    31    27    28 1
    32    27    30 1
    33    28    29 1
    34    30    31 1
    35    30    32 2
    36    30    33 2
    37     1    34 1
    38     1    35 1
    39     1    36 1
    40     4    37 1
    41     5    38 1
    42     7    39 1
    43    10    40 1
    44    10    41 1
    45    10    42 1
    46    12    43 1
    47    14    44 1
    48    14    45 1
    49    14    46 1
    50    18    47 1
    51    25    48 1
    52    25    49 1
    53    29    50 1
    54    29    51 1
    55    26    52 1
    56    26    53 1
    57    28    54 1
    58    28    55 1
    59    31    56 1
    60    31    57 1
    61    31    58 1
@<TRIPOS>SUBSTRUCTURE
     1 N1D         1 TEMP              0 ****  ****    0 ROOT
