@<TRIPOS>MOLECULE
N1D
   58    61     1     0     0
SMALL
bcc


@<TRIPOS>ATOM
      1 C01          0.0000     0.0000     0.0000 c3         1 N1D       0.241700
      2 O05          1.4280     0.0000     0.0000 os         1 N1D      -0.291900
      3 C06          2.0470     0.0000     1.2110 ca         1 N1D       0.125100
      4 C07          1.2920    -0.0010     2.3740 ca         1 N1D      -0.175000
      5 C09          1.9160    -0.0000     3.6040 ca         1 N1D      -0.085000
      6 C11          3.3070    -0.0000     3.6810 ca         1 N1D      -0.047800
      7 C12          4.0670    -0.0010     2.5130 ca         1 N1D      -0.167000
      8 C14          3.4380    -0.0050     1.2810 ca         1 N1D       0.120100
      9 O15          4.1770    -0.0100     0.1400 os         1 N1D      -0.290900
     10 C16          5.5980    -0.0170     0.2860 c3         1 N1D       0.241700
     11 C20          3.9790     0.0000     5.0040 cc         1 N1D      -0.056400
     12 C21          4.7300    -1.0640     5.3880 cd         1 N1D      -0.126400
     13 N23          5.3560    -1.0920     6.5950 n          1 N1D       0.097000
     14 C24          6.1520    -2.2700     6.9520 c3         1 N1D       0.051300
     15 C28          5.2720    -0.0780     7.4700 c          1 N1D       0.626100
     16 O29          5.8530    -0.1490     8.5390 o          1 N1D      -0.678500
     17 C30          4.4800     1.1220     7.1430 cd         1 N1D      -0.209600
     18 C31          4.2590     2.2780     7.8930 cd         1 N1D       0.022000
     19 C33          3.4820     3.2060     7.3130 cc         1 N1D      -0.094700
     20 S34          2.9580     2.6640     5.7270 ss         1 N1D      -0.211800
     21 C35          3.8390     1.1530     5.9010 cc         1 N1D       0.116100
     22 C36          3.1190     4.4910     7.9190 c          1 N1D       0.648700
     23 O37          3.9170     5.0740     8.6290 o          1 N1D      -0.638100
     24 N38          1.9040     5.0260     7.6890 n          1 N1D      -0.142800
     25 C39          0.8830     4.2720     6.9470 c3         1 N1D       0.010500
     26 C42         -0.3850     4.1870     7.8060 c3         1 N1D       0.221300
     27 N45         -0.7130     5.5340     8.2920 n3         1 N1D      -0.550500
     28 C46          0.3070     6.2870     9.0350 c3         1 N1D       0.221300
     29 C49          1.5730     6.3710     8.1810 c3         1 N1D       0.010500
     30 S52         -2.2070     6.1910     8.0110 s6         1 N1D       0.964900
     31 C53         -3.2030     5.6830     9.4380 c3         1 N1D       0.013700
     32 O57         -1.9820     7.5940     8.0330 o          1 N1D      -0.583800
     33 O58         -2.6580     5.5400     6.8300 o          1 N1D      -0.583800
     34 H011        -0.3610    -0.8850     0.5100 h1         1 N1D      -0.002300
     35 H012        -0.3610     0.8840     0.5110 h1         1 N1D      -0.002300
     36 H013        -0.3610     0.0000    -1.0210 h1         1 N1D      -0.002300
     37 H07          0.2110    -0.0010     2.3160 ha         1 N1D       0.125000
     38 H09          1.3240    -0.0000     4.5110 ha         1 N1D       0.110000
     39 H12          5.1490    -0.0030     2.5700 ha         1 N1D       0.126000
     40 H161         5.9040    -0.9200     0.8000 h1         1 N1D      -0.002967
     41 H162         6.0630     0.0170    -0.6920 h1         1 N1D      -0.002967
     42 H163         5.9060     0.8480     0.8620 h1         1 N1D      -0.002967
     43 H21          4.8310    -1.9100     4.7190 h4         1 N1D       0.137000
     44 H241         7.2060    -2.0260     6.8920 h1         1 N1D       0.025367
     45 H242         5.9090    -2.5780     7.9610 h1         1 N1D       0.025367
     46 H243         5.9300    -3.0780     6.2650 h1         1 N1D       0.025367
     47 H31          4.6870     2.4180     8.8780 ha         1 N1D       0.147000
     48 H391         1.2490     3.2730     6.7410 h1         1 N1D       0.049200
     49 H392         0.6590     4.7820     6.0180 h1         1 N1D       0.049200
     50 H491         1.3990     7.0310     7.3400 h1         1 N1D       0.049200
     51 H492         2.3910     6.7480     8.7830 h1         1 N1D       0.049200
     52 H421        -0.2090     3.5300     8.6490 h1         1 N1D       0.028950
     53 H422        -1.2040     3.8080     7.2070 h1         1 N1D       0.028950
     54 H461        -0.0580     7.2870     9.2410 h1         1 N1D       0.028950
     55 H462         0.5300     5.7780     9.9650 h1         1 N1D       0.028950
     56 H531        -3.2500     4.6010     9.4790 h1         1 N1D       0.061700
     57 H532        -2.7490     6.0590    10.3480 h1         1 N1D       0.061700
     58 H533        -4.2040     6.0840     9.3410 h1         1 N1D       0.061700
@<TRIPOS>BOND
     1     1     2 1   
     2     1    34 1   
     3     1    35 1   
     4     1    36 1   
     5     2     3 1   
     6     3     4 ar  
     7     3     8 ar  
     8     4     5 ar  
     9     4    37 1   
    10     5     6 ar  
    11     5    38 1   
    12     6     7 ar  
    13     6    11 1   
    14     7     8 ar  
    15     7    39 1   
    16     8     9 1   
    17     9    10 1   
    18    10    40 1   
    19    10    41 1   
    20    10    42 1   
    21    11    12 2   
    22    11    21 1   
    23    12    13 1   
    24    12    43 1   
    25    13    14 1   
    26    13    15 1   
    27    14    44 1   
    28    14    45 1   
    29    14    46 1   
    30    15    16 2   
    31    15    17 1   
    32    17    18 1   
    33    17    21 2   
    34    18    19 2   
    35    18    47 1   
    36    19    20 1   
    37    19    22 1   
    38    20    21 1   
    39    22    23 2   
    40    22    24 1   
    41    24    25 1   
    42    24    29 1   
    43    25    26 1   
    44    25    48 1   
    45    25    49 1   
    46    26    27 1   
    47    26    52 1   
    48    26    53 1   
    49    27    28 1   
    50    27    30 1   
    51    28    29 1   
    52    28    54 1   
    53    28    55 1   
    54    29    50 1   
    55    29    51 1   
    56    30    31 1   
    57    30    32 2   
    58    30    33 2   
    59    31    56 1   
    60    31    57 1   
    61    31    58 1   
@<TRIPOS>SUBSTRUCTURE
     1 N1D         1 TEMP              0 ****  ****    0 ROOT
