@<TRIPOS>MOLECULE
N1H
   45    48     1     0     0
SMALL
bcc


@<TRIPOS>ATOM
      1 C1           0.0000     0.0000     0.0000 ca         1 N1H       0.452200
      2 C2           1.3950     0.0000     0.0000 ca         1 N1H      -0.224300
      3 C3           2.0760     0.0000     1.2020 ca         1 N1H      -0.064000
      4 C4           1.3390     0.0010     2.3830 ca         1 N1H      -0.358500
      5 C5          -0.0670     0.0020     2.3140 ca         1 N1H       0.383100
      6 N6          -0.6830     0.0060     1.1300 nb         1 N1H      -0.542000
      7 N7          -0.6840    -0.0000    -1.2110 nv         1 N1H      -0.657500
      8 N3           1.6880     0.0020     3.7170 na         1 N1H       0.390600
      9 CN4         -0.5380     0.0020     3.6500 cc         1 N1H      -0.286800
     10 C8           0.5400     0.0020     4.4740 cd         1 N1H      -0.138300
     11 C1'          0.4880     0.0010     5.9510 ca         1 N1H      -0.076800
     12 C2'          1.3880    -0.7750     6.6830 ca         1 N1H      -0.065000
     13 C3'          1.3410    -0.7760     8.0620 ca         1 N1H      -0.005300
     14 CV'          2.3160    -1.6180     8.8440 c3         1 N1H      -0.097100
     15 CW'          3.5550    -0.8110     9.1370 c          1 N1H       0.980600
     16 OX'          4.5660    -1.3600     9.8280 o          1 N1H      -0.890300
     17 OY'          3.6370     0.3310     8.7500 o          1 N1H      -0.890300
     18 C4'          0.4060    -0.0100     8.7300 ca         1 N1H      -0.046000
     19 C5'         -0.5000     0.7720     8.0170 cp         1 N1H      -0.110000
     20 C6'         -0.4580     0.7830     6.6200 ca         1 N1H       0.127100
     21 O6'         -1.3370     1.5420     5.9170 oh         1 N1H      -0.500100
     22 C1B         -1.5030     1.5930     8.7370 cp         1 N1H      -0.010000
     23 C2B         -1.6610     2.9410     8.4200 ca         1 N1H      -0.020000
     24 C3B         -2.5960     3.7000     9.0940 ca         1 N1H      -0.128000
     25 C4B         -3.3770     3.1260    10.0810 ca         1 N1H      -0.030000
     26 C5B         -3.2230     1.7890    10.4000 ca         1 N1H      -0.466200
     27 N5B         -4.0620     1.1810    11.4580 no         1 N1H       1.054200
     28 O51         -4.8840     1.8580    12.0470 o          1 N1H      -0.461000
     29 O52         -3.9280     0.0030    11.7390 o          1 N1H      -0.461000
     30 C6B         -2.2950     1.0180     9.7290 ca         1 N1H      -0.010000
     31 H2           1.9400    -0.0050    -0.9360 ha         1 N1H       0.109000
     32 H3           3.1590     0.0000     1.2250 ha         1 N1H       0.101000
     33 HN71        -0.9550    -0.8670    -1.6320 hn         1 N1H       0.265300
     34 HN72        -0.9320     0.8660    -1.6460 hn         1 N1H       0.265300
     35 HN3          2.6230     0.0020     4.0750 hn         1 N1H       0.129700
     36 HN4         -1.5770     0.0020     3.9590 ha         1 N1H       0.130000
     37 H2'          2.1190    -1.3860     6.1670 ha         1 N1H       0.107000
     38 H311         2.5840    -2.4930     8.2640 hc         1 N1H       0.017200
     39 H312         1.8590    -1.9290     9.7760 hc         1 N1H       0.017200
     40 H4'          0.3760    -0.0180     9.8130 ha         1 N1H       0.116000
     41 H6'         -2.1630     1.0910     5.8560 ho         1 N1H       0.396000
     42 H2B         -1.0050     3.4070     7.6960 ha         1 N1H       0.129000
     43 H3B         -2.7190     4.7490     8.8490 ha         1 N1H       0.109000
     44 H4B         -4.1090     3.7260    10.6080 ha         1 N1H       0.123000
     45 H6B         -2.4030    -0.0520     9.8610 ha         1 N1H       0.136000
@<TRIPOS>BOND
     1     1     2 ar  
     2     1     6 ar  
     3     1     7 1   
     4     2     3 ar  
     5     2    31 1   
     6     3     4 ar  
     7     3    32 1   
     8     4     5 ar  
     9     4     8 1   
    10     5     6 ar  
    11     5     9 1   
    12     7    33 1   
    13     7    34 1   
    14     8    10 1   
    15     8    35 1   
    16     9    10 2   
    17     9    36 1   
    18    10    11 1   
    19    11    12 ar  
    20    11    20 ar  
    21    12    13 ar  
    22    12    37 1   
    23    13    14 1   
    24    13    18 ar  
    25    14    15 1   
    26    14    38 1   
    27    14    39 1   
    28    15    16 1   
    29    15    17 1   
    30    18    19 ar  
    31    18    40 1   
    32    19    20 ar  
    33    19    22 1   
    34    20    21 1   
    35    21    41 1   
    36    22    23 ar  
    37    22    30 ar  
    38    23    24 ar  
    39    23    42 1   
    40    24    25 ar  
    41    24    43 1   
    42    25    26 ar  
    43    25    44 1   
    44    26    27 1   
    45    26    30 ar  
    46    27    28 1   
    47    27    29 1   
    48    30    45 1   
@<TRIPOS>SUBSTRUCTURE
     1 N1H         1 TEMP              0 ****  ****    0 ROOT
