@<TRIPOS>MOLECULE
molecule
   19    19     1     0     0
SMALL
bcc


@<TRIPOS>ATOM
      1 I            0.0000     0.0000     0.0000 i          1 N1M      -0.112900
      2 N            2.7400     0.0030     3.6550 ns         1 N1M      -0.584900
      3 O            0.8470     0.0030     2.4970 o          1 N1M      -0.581100
      4 C1           2.0950     0.0000     0.0000 ca         1 N1M       0.094900
      5 C2           2.7950     0.0000     1.2080 ca         1 N1M      -0.124600
      6 C3           4.1910    -0.0010     1.1990 ca         1 N1M      -0.106000
      7 C4           4.8700    -0.0010    -0.0020 ca         1 N1M      -0.126000
      8 C5           4.1700    -0.0020    -1.1970 ca         1 N1M      -0.109000
      9 C6           2.7860    -0.0070    -1.1950 ca         1 N1M      -0.105000
     10 C7           2.0610     0.0020     2.4920 c          1 N1M       0.659700
     11 C8           2.0140     0.0030     4.9280 c3         1 N1M       0.104300
     12 HN           3.7410     0.0030     3.6510 hn         1 N1M       0.311500
     13 H3           4.7400    -0.0000     2.1330 ha         1 N1M       0.128000
     14 H4           5.9530     0.0000    -0.0110 ha         1 N1M       0.135000
     15 H5           4.7080    -0.0050    -2.1370 ha         1 N1M       0.137000
     16 H6           2.2450    -0.0070    -2.1330 ha         1 N1M       0.147000
     17 H8           1.3910     0.8880     4.9880 h1         1 N1M       0.043367
     18 H8A          1.3910    -0.8810     4.9880 h1         1 N1M       0.043367
     19 H8B          2.7220     0.0040     5.7480 h1         1 N1M       0.043367
@<TRIPOS>BOND
     1     1     4 1
     2     2    10 1
     3     2    11 1
     4     3    10 2
     5     4     5 ar
     6     4     9 ar
     7     5     6 ar
     8     5    10 1
     9     6     7 ar
    10     7     8 ar
    11     8     9 ar
    12     2    12 1
    13     6    13 1
    14     7    14 1
    15     8    15 1
    16     9    16 1
    17    11    17 1
    18    11    18 1
    19    11    19 1
@<TRIPOS>SUBSTRUCTURE
     1 N1M         1 TEMP              0 ****  ****    0 ROOT
