@<TRIPOS>MOLECULE
N1P
   13    12     1     0     0
SMALL
bcc


@<TRIPOS>ATOM
      1 C1           0.0000     0.0000     0.0000 c3         1 N1P       0.009900
      2 C2           1.5300     0.0000     0.0000 c3         1 N1P      -0.019400
      3 C3           2.0400     0.0000     1.4420 c3         1 N1P      -0.288700
      4 N1           3.5040     0.0010     1.4420 no         1 N1P       0.951300
      5 O1           4.1130    -0.7450     2.1890 o          1 N1P      -0.441500
      6 O2           4.1130     0.7460     0.6960 o          1 N1P      -0.441500
      7 H1          -0.3610     0.0170    -1.0210 hc         1 N1P       0.007367
      8 H2          -0.3610     0.8760     0.5250 hc         1 N1P       0.007367
      9 H3          -0.3610    -0.8930     0.4960 hc         1 N1P       0.007367
     10 H4           1.8910     0.8850    -0.5110 hc         1 N1P       0.033700
     11 H5           1.8910    -0.8840    -0.5110 hc         1 N1P       0.033700
     12 H6           1.6780     0.8840     1.9530 h1         1 N1P       0.070200
     13 H7           1.6790    -0.8850     1.9530 h1         1 N1P       0.070200
@<TRIPOS>BOND
     1     1     2 1   
     2     1     7 1   
     3     1     8 1   
     4     1     9 1   
     5     2     3 1   
     6     2    10 1   
     7     2    11 1   
     8     3     4 1   
     9     3    12 1   
    10     3    13 1   
    11     4     5 1   
    12     4     6 1   
@<TRIPOS>SUBSTRUCTURE
     1 N1P         1 TEMP              0 ****  ****    0 ROOT
