@<TRIPOS>MOLECULE
molecule
   13    12     1     0     0
SMALL
bcc


@<TRIPOS>ATOM
      1 C1           0.0000     0.0000     0.0000 c3         1 N1P      -0.092100
      2 C2           1.5300     0.0000     0.0000 c3         1 N1P      -0.096400
      3 C3           2.0400     0.0000     1.4420 c3         1 N1P      -0.075700
      4 N1           3.5040     0.0010     1.4420 no         1 N1P       0.222300
      5 O1           4.1130    -0.7450     2.1890 o          1 N1P      -0.209000
      6 O2           4.1130     0.7460     0.6960 o          1 N1P      -0.209000
      7 H1          -0.3610     0.0170    -1.0210 hc         1 N1P       0.043367
      8 H2          -0.3610     0.8760     0.5250 hc         1 N1P       0.043367
      9 H3          -0.3610    -0.8930     0.4960 hc         1 N1P       0.043367
     10 H4           1.8910     0.8850    -0.5110 hc         1 N1P       0.069200
     11 H5           1.8910    -0.8840    -0.5110 hc         1 N1P       0.069200
     12 H6           1.6780     0.8840     1.9530 h1         1 N1P       0.095700
     13 H7           1.6790    -0.8850     1.9530 h1         1 N1P       0.095700
@<TRIPOS>BOND
     1     1     2 1
     2     2     3 1
     3     3     4 1
     4     4     6 1
     5     4     5 1
     6     1     7 1
     7     1     8 1
     8     1     9 1
     9     2    10 1
    10     2    11 1
    11     3    12 1
    12     3    13 1
@<TRIPOS>SUBSTRUCTURE
     1 N1P         1 TEMP              0 ****  ****    0 ROOT
