@<TRIPOS>MOLECULE
molecule
   43    44     1     0     0
SMALL
bcc


@<TRIPOS>ATOM
      1 C1'          0.0000     0.0000     0.0000 ca         1 N1T      -0.284300
      2 C2'          1.4390     0.0000     0.0000 ca         1 N1T       0.436600
      3 CM2          2.1460     0.2500    -1.2590 c3         1 N1T      -0.145400
      4 N3'          2.0920     0.0000     1.1640 nb         1 N1T      -0.722000
      5 C4'          1.4470    -0.3360     2.3150 ca         1 N1T       0.714200
      6 N4'          2.1900    -0.2990     3.3660 nv         1 N1T      -1.049500
      7 C5'          0.0300    -0.5300     2.3870 ca         1 N1T      -0.248600
      8 C6'         -0.6750    -0.2750     1.2610 ca         1 N1T      -0.082000
      9 C7'         -0.7230    -0.6590     3.7040 c3         1 N1T       0.101600
     10 N3          -0.5910    -1.9800     4.4220 na         1 N1T       0.004900
     11 C2           0.4640    -2.2810     5.1790 cc         1 N1T      -0.350400
     12 S1           0.5640    -3.9130     5.5120 ss         1 N1T       0.323200
     13 C5          -0.8100    -4.2100     4.5490 cc         1 N1T      -0.115400
     14 C4          -1.3940    -3.0250     4.1600 cd         1 N1T      -0.090600
     15 CM4         -2.4620    -2.8910     3.1060 c3         1 N1T      -0.023800
     16 C6          -1.0390    -5.5810     3.9630 c3         1 N1T      -0.013100
     17 C7          -0.9900    -6.7350     4.9210 c3         1 N1T       0.225400
     18 O7           0.4130    -6.8970     5.0220 os         1 N1T      -0.624200
     19 PA           1.2750    -8.1790     5.3260 p5         1 N1T       1.486800
     20 O1A          2.5780    -7.8780     4.6460 o          1 N1T      -0.869500
     21 O2A          0.6490    -9.5090     5.0310 o          1 N1T      -0.869500
     22 O3A          1.5730    -8.2390     6.8810 os         1 N1T      -0.735800
     23 PB           1.1650    -9.1310     8.1010 p5         1 N1T       1.455900
     24 O1B          1.9370    -8.3720     9.0830 o          1 N1T      -0.806833
     25 O2B          1.5270   -10.4860     7.5880 o          1 N1T      -0.806833
     26 O3B         -0.2870    -9.0020     8.2220 o          1 N1T      -0.806833
     27 H1'         -0.5610     0.2050    -0.9040 ha         1 N1T       0.135000
     28 HM21         1.7920    -0.4400    -2.0150 hc         1 N1T       0.049367
     29 HM22         3.2100     0.1090    -1.1110 hc         1 N1T       0.049367
     30 HM23         1.9590     1.2670    -1.5820 hc         1 N1T       0.049367
     31 HN41         2.1400     0.4850     3.9860 hn         1 N1T       0.444800
     32 HN42         2.8040    -1.0620     3.5720 hn         1 N1T       0.444800
     33 H6'         -1.7560    -0.3440     1.2790 ha         1 N1T       0.125000
     34 H7'1        -0.3710     0.1210     4.3690 h1         1 N1T       0.055700
     35 H7'2        -1.7740    -0.4870     3.5080 h1         1 N1T       0.055700
     36 H2           1.1550    -1.5430     5.5680 h5         1 N1T       0.176000
     37 HM41        -3.1810    -3.6940     3.2160 hc         1 N1T       0.045700
     38 HM42        -2.0090    -2.9440     2.1240 hc         1 N1T       0.045700
     39 HM43        -2.9650    -1.9380     3.2210 hc         1 N1T       0.045700
     40 H61         -0.2890    -5.7490     3.1990 hc         1 N1T       0.046700
     41 H62         -2.0120    -5.5830     3.4870 hc         1 N1T       0.046700
     42 H71         -1.4260    -6.4700     5.8770 h1         1 N1T       0.040700
     43 H72         -1.4590    -7.6160     4.5000 h1         1 N1T       0.040700
@<TRIPOS>BOND
     1     1     2 ar
     2     1     8 ar
     3     1    27 1
     4     2     3 1
     5     2     4 ar
     6     3    28 1
     7     3    29 1
     8     3    30 1
     9     4     5 ar
    10     5     6 1
    11     5     7 ar
    12     6    31 1
    13     6    32 1
    14     7     8 ar
    15     7     9 1
    16     8    33 1
    17     9    10 1
    18     9    34 1
    19     9    35 1
    20    10    11 2
    21    10    14 1
    22    11    12 1
    23    11    36 1
    24    12    13 1
    25    13    14 2
    26    13    16 1
    27    14    15 1
    28    15    37 1
    29    15    38 1
    30    15    39 1
    31    16    17 1
    32    16    40 1
    33    16    41 1
    34    17    18 1
    35    17    42 1
    36    17    43 1
    37    18    19 1
    38    19    20 1
    39    19    21 1
    40    19    22 1
    41    22    23 1
    42    23    24 1
    43    23    25 1
    44    23    26 1
@<TRIPOS>SUBSTRUCTURE
     1 N1T         1 TEMP              0 ****  ****    0 ROOT
