@<TRIPOS>MOLECULE
molecule
   28    29     1     0     0
SMALL
bcc


@<TRIPOS>ATOM
      1 Cl           0.0000     0.0000     0.0000 cl         1 N1Y      -0.148000
      2 C1           1.7360     0.0000     0.0000 ca         1 N1Y       0.528300
      3 N1           2.3890     0.0000     1.1470 nb         1 N1Y      -0.686000
      4 C2           3.7060    -0.0010     1.1930 ca         1 N1Y       0.450200
      5 C3           4.4560    -0.0030     0.0320 ca         1 N1Y      -0.258600
      6 C4           5.9620    -0.0040     0.0970 c3         1 N1Y       0.315100
      7 N2           6.4480    -1.3850     0.1180 nh         1 N1Y      -0.731400
      8 C5           3.8050    -0.0030    -1.1920 ca         1 N1Y      -0.062000
      9 C6           2.4200    -0.0080    -1.2030 ca         1 N1Y      -0.234300
     10 C7           6.7640    -2.1440    -0.9950 c2         1 N1Y       0.466000
     11 C8           6.6610    -1.7030    -2.2470 c2         1 N1Y      -0.461100
     12 N3           7.1980    -3.4130    -0.6560 nu         1 N1Y      -0.817000
     13 C9           7.1840    -3.5470     0.8060 c3         1 N1Y       0.201800
     14 C10          6.6870    -2.1870     1.3250 c3         1 N1Y       0.199800
     15 N4           7.0220    -2.5910    -3.3760 no         1 N1Y       0.313100
     16 O1           7.4140    -3.7240    -3.1590 o          1 N1Y      -0.253000
     17 O2           6.9280    -2.1890    -4.5210 o          1 N1Y      -0.253000
     18 H1           4.2070    -0.0010     2.1540 h4         1 N1Y       0.026100
     19 H2           6.3610     0.5060    -0.7720 h1         1 N1Y       0.068700
     20 H3           6.2850     0.5070     0.9950 h1         1 N1Y       0.068700
     21 H4           4.3670    -0.0070    -2.1180 ha         1 N1Y       0.154000
     22 H5           1.8790    -0.0080    -2.1410 ha         1 N1Y       0.158000
     23 H6           6.3130    -0.6960    -2.4400 h4         1 N1Y       0.180000
     24 H8           8.2160    -3.6430     1.1210 h1         1 N1Y       0.070700
     25 H9           7.4460    -1.7210     1.9410 h1         1 N1Y       0.055700
     26 H7           7.4760    -4.1240    -1.3030 hn         1 N1Y       0.520800
     27 H10          6.4170    -4.2730     1.0470 h1         1 N1Y       0.070700
     28 H11          5.7650    -2.3120     1.8800 h1         1 N1Y       0.055700
@<TRIPOS>BOND
     1     1     2 1
     2     9     2 ar
     3     9     8 ar
     4     2     3 ar
     5     8     5 ar
     6     3     4 ar
     7     4     5 ar
     8     5     6 1
     9     6     7 1
    10     7    10 1
    11     7    14 1
    12    17    15 1
    13    11    10 2
    14    11    15 1
    15    10    12 1
    16    15    16 1
    17    14    13 1
    18    12    13 1
    19     4    18 1
    20     6    19 1
    21     6    20 1
    22     8    21 1
    23     9    22 1
    24    11    23 1
    25    13    24 1
    26    14    25 1
    27    12    26 1
    28    13    27 1
    29    14    28 1
@<TRIPOS>SUBSTRUCTURE
     1 N1Y         1 TEMP              0 ****  ****    0 ROOT
