@<TRIPOS>MOLECULE
molecule
   47    47     1     0     0
SMALL
bcc


@<TRIPOS>ATOM
      1 CAA          0.0000     0.0000     0.0000 c3         1 N1Z      -0.092100
      2 OAB         10.8990    -2.2690    11.3490 o          1 N1Z      -0.886167
      3 OAG         11.2480     0.6080     7.6010 o          1 N1Z      -0.886167
      4 OAD         10.9830    -2.5080     7.4050 oh         1 N1Z      -0.655800
      5 OAE         12.7670    -3.2800     9.9220 o          1 N1Z      -0.886167
      6 OAF         10.3580    -4.3310     9.9350 o          1 N1Z      -0.886167
      7 OAH         13.1420    -0.6120     8.6520 o          1 N1Z      -0.886167
      8 OAC         11.3440     0.4210    10.1500 o          1 N1Z      -0.886167
      9 CAI          8.8300     0.6930     7.6510 cc         1 N1Z       0.020700
     10 CAJ          8.4050     1.0940     6.4380 cd         1 N1Z      -0.312300
     11 CAK          8.3900    -1.0640     6.4210 cc         1 N1Z      -0.106600
     12 CAL          1.5310     0.0000     0.0000 c3         1 N1Z      -0.085400
     13 CAM          2.0400     0.0000     1.4430 c3         1 N1Z      -0.082400
     14 CAN          3.5700     0.0000     1.4420 c3         1 N1Z      -0.083400
     15 CAO          4.0800    -0.0000     2.8860 c3         1 N1Z      -0.080400
     16 CAP          5.6100     0.0000     2.8850 c3         1 N1Z      -0.082400
     17 CAQ          6.1200     0.0000     4.3280 c3         1 N1Z      -0.107400
     18 CAR          7.6510     0.0000     4.3280 c3         1 N1Z       0.050300
     19 NAT          8.8220    -0.6770     7.6410 na         1 N1Z       0.071900
     20 NAU          8.1390     0.0010     5.7080 na         1 N1Z      -0.023100
     21 CAV         10.7070    -1.8630     8.6490 c3         1 N1Z      -0.109600
     22 PAW         11.1930    -2.9580    10.0240 p5         1 N1Z       1.037200
     23 PAX         11.6540    -0.3080     8.7480 p5         1 N1Z       1.037200
     24 HAA         -0.3610    -0.0000    -1.0210 hc         1 N1Z       0.027700
     25 HAAA        -0.3610     0.8850     0.5110 hc         1 N1Z       0.027700
     26 HAAB        -0.3610    -0.8840     0.5110 hc         1 N1Z       0.027700
     27 HOAD        11.7940    -2.9840     7.4710 ho         1 N1Z       0.421000
     28 HAI          9.1250     1.3310     8.4760 h4         1 N1Z       0.241000
     29 HAJ          8.2930     2.1210     6.1100 h4         1 N1Z       0.151000
     30 HAK          8.2680    -2.0880     6.0900 h5         1 N1Z       0.203000
     31 HAL          1.8920    -0.8850    -0.5110 hc         1 N1Z       0.037700
     32 HALA         1.8920     0.8850    -0.5110 hc         1 N1Z       0.037700
     33 HAM          1.6790    -0.8850     1.9530 hc         1 N1Z       0.041200
     34 HAMA         1.6790     0.8850     1.9530 hc         1 N1Z       0.041200
     35 HAN          3.9310    -0.8840     0.9310 hc         1 N1Z       0.038200
     36 HANA         3.9310     0.8850     0.9320 hc         1 N1Z       0.038200
     37 HAO          3.7190    -0.8850     3.3960 hc         1 N1Z       0.042700
     38 HAOA         3.7190     0.8840     3.3960 hc         1 N1Z       0.042700
     39 HAP          5.9720    -0.8840     2.3740 hc         1 N1Z       0.037700
     40 HAPA         5.9710     0.8850     2.3740 hc         1 N1Z       0.037700
     41 HAQ          5.7590    -0.8840     4.8380 hc         1 N1Z       0.053200
     42 HAQA         5.7590     0.8850     4.8380 hc         1 N1Z       0.053200
     43 HAR          8.0120    -0.8840     3.8170 h1         1 N1Z       0.055700
     44 HARA         8.0120     0.8850     3.8170 h1         1 N1Z       0.055700
     45 HAS          8.6490    -2.4800     8.6860 h1         1 N1Z       0.077700
     46 HASA         9.0020    -1.0660     9.6880 h1         1 N1Z       0.077700
     47 CAS          9.2110    -1.5560     8.7450 c3         1 N1Z       0.052300
@<TRIPOS>BOND
     1     1    12 1
     2     1    24 1
     3     1    25 1
     4     1    26 1
     5     2    22 1
     6     4    21 1
     7     4    27 1
     8     7    23 1
     9     8    23 1
    10     9    10 2
    11     9    28 1
    12    10    29 1
    13    11    19 2
    14    11    20 1
    15    11    30 1
    16    12    13 1
    17    12    31 1
    18    12    32 1
    19    13    14 1
    20    13    33 1
    21    13    34 1
    22    14    15 1
    23    14    35 1
    24    14    36 1
    25    15    16 1
    26    15    37 1
    27    15    38 1
    28    16    39 1
    29    16    40 1
    30    17    16 1
    31    17    18 1
    32    17    41 1
    33    17    42 1
    34    18    43 1
    35    18    44 1
    36    47    19 1
    37    47    21 1
    38    47    45 1
    39    47    46 1
    40    19     9 1
    41    20    10 1
    42    20    18 1
    43    21    22 1
    44    22     5 1
    45    22     6 1
    46    23     3 1
    47    23    21 1
@<TRIPOS>SUBSTRUCTURE
     1 N1Z         1 TEMP              0 ****  ****    0 ROOT
