@<TRIPOS>MOLECULE
N20
   46    49     1     0     0
SMALL
bcc


@<TRIPOS>ATOM
      1 C2           0.0000     0.0000     0.0000 ca         1 N20       0.750900
      2 C8           0.5930    -0.0250     4.3950 cc         1 N20       0.207700
      3 C10          3.7690     0.0160    -0.2480 c3         1 N20       0.177400
      4 C11          5.2950     0.0200    -0.3330 c3         1 N20      -0.062700
      5 C12          5.7260     0.0320    -1.8020 c3         1 N20      -0.022400
      6 C13          7.2530     0.0370    -1.8850 c3         1 N20      -0.022400
      7 C14          7.7980     1.2820    -1.1850 c3         1 N20      -0.026400
      8 C15          7.3690     1.2700     0.2840 c3         1 N20      -0.022400
      9 C16          5.8410     1.2660     0.3690 c3         1 N20      -0.022400
     10 C19          0.3220     0.4650    -4.7240 ca         1 N20      -0.120000
     11 C20          1.4680    -0.3140    -4.7760 ca         1 N20       0.106100
     12 C21          1.9000    -0.9920    -3.6460 ca         1 N20      -0.120000
     13 C22          1.1950    -0.8820    -2.4630 ca         1 N20      -0.105000
     14 N1           1.3270     0.0000     0.0000 nb         1 N20      -0.780000
     15 C6           2.0130     0.0000     1.1340 ca         1 N20       0.747600
     16 O6           3.3670     0.0040     1.1220 os         1 N20      -0.373100
     17 C5           1.3070    -0.0100     2.3470 ca         1 N20      -0.250200
     18 N7           1.6620    -0.0180     3.6550 nd         1 N20      -0.452100
     19 N9          -0.5200    -0.0250     3.6060 na         1 N20       0.166000
     20 C4          -0.0980    -0.0160     2.3000 ca         1 N20       0.280800
     21 N3          -0.7060    -0.0100     1.1200 nb         1 N20      -0.725000
     22 N2          -0.6710     0.0050    -1.2130 nu         1 N20      -0.288300
     23 C17          0.0490    -0.1020    -2.4100 ca         1 N20      -0.011400
     24 C18         -0.3870     0.5710    -3.5440 ca         1 N20      -0.105000
     25 H23          1.8370    -1.1470    -6.4390 ho         1 N20       0.400000
     26 H8           0.5870    -0.0310     5.4790 h5         1 N20       0.032800
     27 H101         3.3780     0.9030    -0.7320 h1         1 N20       0.025200
     28 H102         3.3820    -0.8660    -0.7450 h1         1 N20       0.025200
     29 H11          5.6910    -0.8660     0.1500 hc         1 N20       0.036700
     30 H121         5.3360     0.9210    -2.2830 hc         1 N20       0.019700
     31 H122         5.3410    -0.8510    -2.2960 hc         1 N20       0.019700
     32 H131         7.5570     0.0480    -2.9250 hc         1 N20       0.013450
     33 H132         7.6430    -0.8490    -1.3990 hc         1 N20       0.013450
     34 H141         8.8800     1.2840    -1.2430 hc         1 N20       0.012700
     35 H142         7.4040     2.1690    -1.6670 hc         1 N20       0.012700
     36 H151         7.7590     0.3820     0.7650 hc         1 N20       0.013450
     37 H152         7.7540     2.1540     0.7780 hc         1 N20       0.013450
     38 H161         5.5390     1.2550     1.4090 hc         1 N20       0.019700
     39 H162         5.4510     2.1520    -0.1170 hc         1 N20       0.019700
     40 H19         -0.0170     0.9900    -5.6090 ha         1 N20       0.113000
     41 H21          2.7950    -1.6000    -3.6890 ha         1 N20       0.113000
     42 H22          1.5320    -1.4110    -1.5810 ha         1 N20       0.122000
     43 H9          -1.4700    -0.0300     3.9210 hn         1 N20       0.133700
     44 H2          -1.6710     0.0440    -1.2320 hn         1 N20       0.293800
     45 H18         -1.2820     1.1800    -3.5020 ha         1 N20       0.122000
     46 O23          2.1660    -0.4180    -5.9390 oh         1 N20      -0.500100
@<TRIPOS>BOND
     1     1    14 ar  
     2     1    21 ar  
     3     1    22 1   
     4     2    18 2   
     5     2    19 1   
     6     2    26 1   
     7     3     4 1   
     8     3    16 1   
     9     3    27 1   
    10     3    28 1   
    11     4     5 1   
    12     4     9 1   
    13     4    29 1   
    14     5     6 1   
    15     5    30 1   
    16     5    31 1   
    17     6     7 1   
    18     6    32 1   
    19     6    33 1   
    20     7     8 1   
    21     7    34 1   
    22     7    35 1   
    23     8     9 1   
    24     8    36 1   
    25     8    37 1   
    26     9    38 1   
    27     9    39 1   
    28    10    11 ar  
    29    10    24 ar  
    30    10    40 1   
    31    11    12 ar  
    32    11    46 1   
    33    12    13 ar  
    34    12    41 1   
    35    13    23 ar  
    36    13    42 1   
    37    14    15 ar  
    38    15    16 1   
    39    15    17 ar  
    40    17    18 1   
    41    17    20 ar  
    42    19    20 1   
    43    19    43 1   
    44    20    21 ar  
    45    22    23 1   
    46    22    44 1   
    47    23    24 ar  
    48    24    45 1   
    49    25    46 1   
@<TRIPOS>SUBSTRUCTURE
     1 N20         1 TEMP              0 ****  ****    0 ROOT
