@<TRIPOS>MOLECULE
molecule
   46    49     1     0     0
SMALL
bcc


@<TRIPOS>ATOM
      1 C2           0.0000     0.0000     0.0000 ca         1 N20       0.989900
      2 C8           0.5930    -0.0250     4.3950 cc         1 N20       0.402700
      3 C10          3.7690     0.0160    -0.2480 c3         1 N20       0.122400
      4 C11          5.2950     0.0200    -0.3330 c3         1 N20      -0.076700
      5 C12          5.7260     0.0320    -1.8020 c3         1 N20      -0.074400
      6 C13          7.2530     0.0370    -1.8850 c3         1 N20      -0.078400
      7 C14          7.7980     1.2820    -1.1850 c3         1 N20      -0.081400
      8 C15          7.3690     1.2700     0.2840 c3         1 N20      -0.078400
      9 C16          5.8410     1.2660     0.3690 c3         1 N20      -0.074400
     10 C19          0.3220     0.4650    -4.7240 ca         1 N20      -0.137000
     11 C20          1.4680    -0.3140    -4.7760 ca         1 N20       0.084100
     12 C21          1.9000    -0.9920    -3.6460 ca         1 N20      -0.137000
     13 C22          1.1950    -0.8820    -2.4630 ca         1 N20      -0.135500
     14 N1           1.3270     0.0000     0.0000 nb         1 N20      -0.873000
     15 C6           2.0130     0.0000     1.1340 ca         1 N20       0.768600
     16 O6           3.3670     0.0040     1.1220 os         1 N20      -0.381100
     17 C5           1.3070    -0.0100     2.3470 ca         1 N20      -0.207200
     18 N7           1.6620    -0.0180     3.6550 nd         1 N20      -0.550100
     19 N9          -0.5200    -0.0250     3.6060 na         1 N20      -0.364000
     20 C4          -0.0980    -0.0160     2.3000 ca         1 N20       0.501800
     21 N3          -0.7060    -0.0100     1.1200 nb         1 N20      -0.838000
     22 N2          -0.6710     0.0050    -1.2130 nu         1 N20      -0.754300
     23 C17          0.0490    -0.1020    -2.4100 ca         1 N20       0.155600
     24 C18         -0.3870     0.5710    -3.5440 ca         1 N20      -0.135500
     25 H23          1.8370    -1.1470    -6.4390 ho         1 N20       0.416000
     26 H8           0.5870    -0.0310     5.4790 h5         1 N20       0.080800
     27 H101         3.3780     0.9030    -0.7320 h1         1 N20       0.058200
     28 H102         3.3820    -0.8660    -0.7450 h1         1 N20       0.058200
     29 H11          5.6910    -0.8660     0.1500 hc         1 N20       0.061700
     30 H121         5.3360     0.9210    -2.2830 hc         1 N20       0.047200
     31 H122         5.3410    -0.8510    -2.2960 hc         1 N20       0.047200
     32 H131         7.5570     0.0480    -2.9250 hc         1 N20       0.041700
     33 H132         7.6430    -0.8490    -1.3990 hc         1 N20       0.041700
     34 H141         8.8800     1.2840    -1.2430 hc         1 N20       0.040700
     35 H142         7.4040     2.1690    -1.6670 hc         1 N20       0.040700
     36 H151         7.7590     0.3820     0.7650 hc         1 N20       0.041700
     37 H152         7.7540     2.1540     0.7780 hc         1 N20       0.041700
     38 H161         5.5390     1.2550     1.4090 hc         1 N20       0.047200
     39 H162         5.4510     2.1520    -0.1170 hc         1 N20       0.047200
     40 H19         -0.0170     0.9900    -5.6090 ha         1 N20       0.141500
     41 H21          2.7950    -1.6000    -3.6890 ha         1 N20       0.141500
     42 H22          1.5320    -1.4110    -1.5810 ha         1 N20       0.147500
     43 H9          -1.4700    -0.0300     3.9210 hn         1 N20       0.313700
     44 H2          -1.6710     0.0440    -1.2320 hn         1 N20       0.468800
     45 H18         -1.2820     1.1800    -3.5020 ha         1 N20       0.147500
     46 O23          2.1660    -0.4180    -5.9390 oh         1 N20      -0.522100
@<TRIPOS>BOND
     1     1    14 ar
     2     1    21 ar
     3     1    22 1
     4    46    11 1
     5    46    25 1
     6     2    18 2
     7     2    19 1
     8     2    26 1
     9     3     4 1
    10     3    16 1
    11     3    27 1
    12     3    28 1
    13     4     5 1
    14     4     9 1
    15     4    29 1
    16     5     6 1
    17     5    30 1
    18     5    31 1
    19     6     7 1
    20     6    32 1
    21     6    33 1
    22     7     8 1
    23     7    34 1
    24     7    35 1
    25     8     9 1
    26     8    36 1
    27     8    37 1
    28     9    38 1
    29     9    39 1
    30    10    11 ar
    31    10    24 ar
    32    10    40 1
    33    11    12 ar
    34    12    13 ar
    35    12    41 1
    36    13    23 ar
    37    13    42 1
    38    14    15 ar
    39    15    16 1
    40    15    17 ar
    41    17    18 1
    42    17    20 ar
    43    19    20 1
    44    19    43 1
    45    20    21 ar
    46    22    23 1
    47    22    44 1
    48    23    24 ar
    49    24    45 1
@<TRIPOS>SUBSTRUCTURE
     1 N20         1 TEMP              0 ****  ****    0 ROOT
