@<TRIPOS>MOLECULE
N21
   53    55     1     0     0
SMALL
bcc


@<TRIPOS>ATOM
      1 OE1          0.0000     0.0000     0.0000 o          1 N21      -0.920300
      2 CD           1.2080     0.0000     0.0000 c          1 N21       0.984600
      3 OE2          1.8790     0.0000     1.1620 o          1 N21      -0.920300
      4 CG           1.9610    -0.0090    -1.3050 c3         1 N21      -0.143400
      5 CB           0.9670    -0.0150    -2.4680 c3         1 N21      -0.013400
      6 C            0.7580     0.0940    -4.9370 c          1 N21       0.977600
      7 OXT         -0.0410     1.1690    -5.0300 o          1 N21      -0.903300
      8 O            0.6950    -0.7790    -5.7690 o          1 N21      -0.903300
      9 N            2.4810    -1.2760    -3.9170 n7         1 N21      -0.498100
     10 OBC          3.8000    -0.5830    -5.8840 o          1 N21      -0.609300
     11 CAT          5.7810    -0.9170    -2.6590 ca         1 N21       0.010000
     12 CAQ          6.6340    -0.1580    -1.8800 ca         1 N21      -0.113000
     13 CAS          5.0490    -0.3190    -3.6680 ca         1 N21      -0.121500
     14 CAR          5.1720     1.0390    -3.9000 ca         1 N21       0.010000
     15 CAP          6.0260     1.7980    -3.1210 ca         1 N21      -0.113000
     16 CAO          6.7570     1.2000    -2.1120 ca         1 N21      -0.092300
     17 CAN          7.6860     2.0280    -1.2620 c3         1 N21       0.258700
     18 CAA          9.9460     2.7590    -1.2140 ca         1 N21       0.205100
     19 CAB         11.2310     2.8220    -1.7420 ca         1 N21      -0.188500
     20 CAG         12.2090     3.5430    -1.0950 ca         1 N21      -0.029000
     21 CAC          9.6410     3.4240    -0.0320 ca         1 N21      -0.188500
     22 CAE         10.6120     4.1480     0.6230 ca         1 N21      -0.029000
     23 CAF         11.9080     4.2150     0.0960 ca         1 N21      -0.194800
     24 CAH         12.9480     4.9850     0.7910 ce         1 N21       0.163800
     25 SBG         14.3440     5.3320    -1.6350 ss         1 N21      -0.266200
     26 CAL         15.9380     6.1000    -1.5380 c          1 N21       0.661100
     27 NAX         16.1600     6.3740    -0.2480 ns         1 N21      -0.162500
     28 CA           1.7320    -0.0240    -3.7930 c3         1 N21       0.079500
     29 CAK         15.2450     6.0570     0.6520 c          1 N21       0.632700
     30 CAI         14.0410     5.4150     0.1110 cd         1 N21      -0.166600
     31 SAU          3.9610    -1.2860    -4.6600 sy         1 N21       1.012200
     32 OBD          4.4370    -2.6240    -4.5890 o          1 N21      -0.609300
     33 OAY          8.9840     2.0520    -1.8590 os         1 N21      -0.291900
     34 HG1C         2.5830    -0.8950    -1.3570 hc         1 N21      -0.004300
     35 HG2C         2.5850     0.8740    -1.3680 hc         1 N21      -0.004300
     36 HB1C         0.3430    -0.8990    -2.4050 hc         1 N21       0.038700
     37 HB2C         0.3450     0.8700    -2.4160 hc         1 N21       0.038700
     38 HA           2.4210     0.8120    -3.8180 h1         1 N21       0.013700
     39 H            2.0770    -2.1340    -3.5940 hn         1 N21       0.344800
     40 HAT          5.6850    -1.9800    -2.4770 ha         1 N21       0.129500
     41 HAQ          7.2070    -0.6260    -1.0900 ha         1 N21       0.098500
     42 HAR          4.5990     1.5080    -4.6910 ha         1 N21       0.129500
     43 HAP          6.1220     2.8620    -3.3030 ha         1 N21       0.098500
     44 HAN1         7.7510     1.5950    -0.2710 h1         1 N21       0.008700
     45 HAN2         7.3030     3.0390    -1.1900 h1         1 N21       0.008700
     46 HAB         11.4630     2.3020    -2.6640 ha         1 N21       0.131500
     47 HAC          8.6390     3.3720     0.3750 ha         1 N21       0.131500
     48 HAG         13.2100     3.5920    -1.5070 ha         1 N21       0.121500
     49 HAE         10.3740     4.6660     1.5440 ha         1 N21       0.121500
     50 HAH         12.9000     5.1030     1.8660 ha         1 N21       0.118000
     51 HAX         17.0130     6.8150     0.0340 hn         1 N21       0.189500
     52 OBE         15.3890     6.2800     1.8400 o          1 N21      -0.640500
     53 OBH         16.6870     6.3340    -2.4680 o          1 N21      -0.589500
@<TRIPOS>BOND
     1     1     2 1   
     2     2     3 1   
     3     2     4 1   
     4     4     5 1   
     5     4    34 1   
     6     4    35 1   
     7     5    28 1   
     8     5    36 1   
     9     5    37 1   
    10     6     7 1   
    11     6     8 1   
    12     6    28 1   
    13     9    28 1   
    14     9    31 1   
    15     9    39 1   
    16    10    31 2   
    17    11    12 ar  
    18    11    13 ar  
    19    11    40 1   
    20    12    16 ar  
    21    12    41 1   
    22    13    14 ar  
    23    13    31 1   
    24    14    15 ar  
    25    14    42 1   
    26    15    16 ar  
    27    15    43 1   
    28    16    17 1   
    29    17    33 1   
    30    17    44 1   
    31    17    45 1   
    32    18    19 ar  
    33    18    21 ar  
    34    18    33 1   
    35    19    20 ar  
    36    19    46 1   
    37    20    23 ar  
    38    20    48 1   
    39    21    22 ar  
    40    21    47 1   
    41    22    23 ar  
    42    22    49 1   
    43    23    24 1   
    44    24    30 2   
    45    24    50 1   
    46    25    26 1   
    47    25    30 1   
    48    26    27 1   
    49    26    53 2   
    50    27    29 1   
    51    27    51 1   
    52    28    38 1   
    53    29    30 1   
    54    29    52 2   
    55    31    32 2   
@<TRIPOS>SUBSTRUCTURE
     1 N21         1 TEMP              0 ****  ****    0 ROOT
