@<TRIPOS>MOLECULE
molecule
   43    44     1     0     0
SMALL
bcc


@<TRIPOS>ATOM
      1 C8           0.0000     0.0000     0.0000 c3         1 N22      -0.076100
      2 C7           1.5310     0.0000     0.0000 c3         1 N22      -0.115700
      3 C5           2.0330     0.0000     1.4210 ca         1 N22       0.523600
      4 N4           2.2570    -1.1410     2.0520 nb         1 N22      -0.783000
      5 C3           2.6990    -1.1560     3.3020 ca         1 N22       0.893900
      6 N8           2.9190    -2.3730     3.9210 nv         1 N22      -0.904500
      7 N2           2.9380    -0.0400     3.9750 nb         1 N22      -0.846000
      8 C1           2.7390     1.1470     3.4150 ca         1 N22       0.771200
      9 N7           2.9890     2.3090     4.1220 nv         1 N22      -1.036500
     10 C6           2.2750     1.2020     2.0860 ca         1 N22      -0.284600
     11 C9           2.0510     2.4590     1.4370 cg         1 N22      -0.115000
     12 C10          1.8530     3.4810     0.8940 c1         1 N22      -0.126100
     13 C11          2.0740     4.8890     0.2910 c3         1 N22       0.061000
     14 C13          1.9210     6.0380     1.5750 ca         1 N22      -0.061300
     15 C18          0.9780     6.6210     1.9970 ca         1 N22      -0.137000
     16 C17          0.8460     7.4190     2.8820 ca         1 N22       0.092100
     17 O2          -0.2920     8.0470     3.0880 os         1 N22      -0.279900
     18 C4          -0.2560     8.8740     4.3860 c3         1 N22       0.098700
     19 C16          2.2190     7.6900     3.5610 ca         1 N22      -0.150000
     20 C15          3.2010     7.1960     3.2530 ca         1 N22      -0.123000
     21 C14          3.3300     6.2020     2.1410 ca         1 N22       0.024100
     22 O10          4.3920     5.6820     1.5730 os         1 N22      -0.288900
     23 C2           5.3300     5.3070     2.8930 c3         1 N22       0.116700
     24 H8          -0.3180     0.4460     0.9340 hc         1 N22       0.039367
     25 H8A         -0.6450    -0.7340    -0.4680 hc         1 N22       0.039367
     26 H8B         -0.3310     0.7790    -0.6760 hc         1 N22       0.039367
     27 H7           2.0280     0.8240    -0.4970 hc         1 N22       0.055200
     28 H7A          2.0890    -0.7560    -0.5390 hc         1 N22       0.055200
     29 HN8          3.4980    -2.7970     3.2240 hn         1 N22       0.419300
     30 HN8A         3.1710    -2.3500     4.8890 hn         1 N22       0.419300
     31 HN7          3.6460     2.9180     3.6770 hn         1 N22       0.434800
     32 HN7A         2.7100     2.5840     5.0430 hn         1 N22       0.434800
     33 H11          1.2680     4.9460    -0.4310 hc         1 N22       0.055700
     34 H11A         2.8060     4.9020    -0.5080 hc         1 N22       0.055700
     35 H18          0.0600     6.1600     1.6550 ha         1 N22       0.135000
     36 H4           0.7130     8.6070     4.7900 h1         1 N22       0.047367
     37 H4A         -1.0240     8.5790     5.0910 h1         1 N22       0.047367
     38 H4B         -0.3060     9.9420     4.5610 h1         1 N22       0.047367
     39 H16          1.9930     8.3620     4.3800 ha         1 N22       0.128000
     40 H15          4.1980     7.3210     3.6580 ha         1 N22       0.117000
     41 H2           5.2040     4.2340     2.9660 h1         1 N22       0.059033
     42 H2A          4.9090     5.7430     3.7910 h1         1 N22       0.059033
     43 H2B          6.3440     5.6100     2.6620 h1         1 N22       0.059033
@<TRIPOS>BOND
     1     1     2 1
     2     2     3 1
     3     3     4 ar
     4     3    10 ar
     5     4     5 ar
     6     5     6 1
     7     5     7 ar
     8     7     8 ar
     9     8     9 1
    10     8    10 ar
    11    10    11 1
    12    11    12 3
    13    12    13 1
    14    13    14 1
    15    14    15 ar
    16    14    21 ar
    17    15    16 ar
    18    16    17 1
    19    16    19 ar
    20    17    18 1
    21    19    20 ar
    22    20    21 ar
    23    21    22 1
    24    22    23 1
    25     1    24 1
    26     1    25 1
    27     1    26 1
    28     2    27 1
    29     2    28 1
    30     6    29 1
    31     6    30 1
    32     9    31 1
    33     9    32 1
    34    13    33 1
    35    13    34 1
    36    15    35 1
    37    18    36 1
    38    18    37 1
    39    18    38 1
    40    19    39 1
    41    20    40 1
    42    23    41 1
    43    23    42 1
    44    23    43 1
@<TRIPOS>SUBSTRUCTURE
     1 N22         1 TEMP              0 ****  ****    0 ROOT
