@<TRIPOS>MOLECULE
N22
   43    44     1     0     0
SMALL
bcc


@<TRIPOS>ATOM
      1 C8           0.0000     0.0000     0.0000 c3         1 N22       0.024900
      2 C7           1.5310     0.0000     0.0000 c3         1 N22      -0.059700
      3 C5           2.0330     0.0000     1.4210 ca         1 N22       0.471600
      4 N4           2.2570    -1.1410     2.0520 nb         1 N22      -0.670000
      5 C3           2.6990    -1.1560     3.3020 ca         1 N22       0.701900
      6 N8           2.9190    -2.3730     3.9210 nv         1 N22      -0.518500
      7 N2           2.9380    -0.0400     3.9750 nb         1 N22      -0.740000
      8 C1           2.7390     1.1470     3.4150 ca         1 N22       0.579200
      9 N7           2.9890     2.3090     4.1220 nv         1 N22      -0.577500
     10 C6           2.2750     1.2020     2.0860 ca         1 N22      -0.252600
     11 C9           2.0510     2.4590     1.4370 cg         1 N22      -0.112000
     12 C10          1.8530     3.4810     0.8940 c1         1 N22      -0.141100
     13 C11          2.0740     4.8890     0.2910 c3         1 N22       0.183000
     14 C13          1.9210     6.0380     1.5750 ca         1 N22      -0.068300
     15 C18          0.9780     6.6210     1.9970 ca         1 N22      -0.137000
     16 C17          0.8460     7.4190     2.8820 ca         1 N22       0.105100
     17 O2          -0.2920     8.0470     3.0880 os         1 N22      -0.256900
     18 C4          -0.2560     8.8740     4.3860 c3         1 N22       0.201700
     19 C16          2.2190     7.6900     3.5610 ca         1 N22      -0.129000
     20 C15          3.2010     7.1960     3.2530 ca         1 N22      -0.104000
     21 C14          3.3300     6.2020     2.1410 ca         1 N22       0.042100
     22 O10          4.3920     5.6820     1.5730 os         1 N22      -0.276900
     23 C2           5.3300     5.3070     2.8930 c3         1 N22       0.233700
     24 H8          -0.3180     0.4460     0.9340 hc         1 N22       0.002367
     25 H8A         -0.6450    -0.7340    -0.4680 hc         1 N22       0.002367
     26 H8B         -0.3310     0.7790    -0.6760 hc         1 N22       0.002367
     27 H7           2.0280     0.8240    -0.4970 hc         1 N22       0.018200
     28 H7A          2.0890    -0.7560    -0.5390 hc         1 N22       0.018200
     29 HN8          3.4980    -2.7970     3.2240 hn         1 N22       0.266800
     30 HN8A         3.1710    -2.3500     4.8890 hn         1 N22       0.266800
     31 HN7          3.6460     2.9180     3.6770 hn         1 N22       0.270300
     32 HN7A         2.7100     2.5840     5.0430 hn         1 N22       0.270300
     33 H11          1.2680     4.9460    -0.4310 hc         1 N22       0.007200
     34 H11A         2.8060     4.9020    -0.5080 hc         1 N22       0.007200
     35 H18          0.0600     6.1600     1.6550 ha         1 N22       0.114000
     36 H4           0.7130     8.6070     4.7900 h1         1 N22       0.003367
     37 H4A         -1.0240     8.5790     5.0910 h1         1 N22       0.003367
     38 H4B         -0.3060     9.9420     4.5610 h1         1 N22       0.003367
     39 H16          1.9930     8.3620     4.3800 ha         1 N22       0.114000
     40 H15          4.1980     7.3210     3.6580 ha         1 N22       0.100000
     41 H2           5.2040     4.2340     2.9660 h1         1 N22       0.010700
     42 H2A          4.9090     5.7430     3.7910 h1         1 N22       0.010700
     43 H2B          6.3440     5.6100     2.6620 h1         1 N22       0.010700
@<TRIPOS>BOND
     1     1     2 1   
     2     1    24 1   
     3     1    25 1   
     4     1    26 1   
     5     2     3 1   
     6     2    27 1   
     7     2    28 1   
     8     3     4 ar  
     9     3    10 ar  
    10     4     5 ar  
    11     5     6 1   
    12     5     7 ar  
    13     6    29 1   
    14     6    30 1   
    15     7     8 ar  
    16     8     9 1   
    17     8    10 ar  
    18     9    31 1   
    19     9    32 1   
    20    10    11 1   
    21    11    12 3   
    22    12    13 1   
    23    13    14 1   
    24    13    33 1   
    25    13    34 1   
    26    14    15 ar  
    27    14    21 ar  
    28    15    16 ar  
    29    15    35 1   
    30    16    17 1   
    31    16    19 ar  
    32    17    18 1   
    33    18    36 1   
    34    18    37 1   
    35    18    38 1   
    36    19    20 ar  
    37    19    39 1   
    38    20    21 ar  
    39    20    40 1   
    40    21    22 1   
    41    22    23 1   
    42    23    41 1   
    43    23    42 1   
    44    23    43 1   
@<TRIPOS>SUBSTRUCTURE
     1 N22         1 TEMP              0 ****  ****    0 ROOT
