@<TRIPOS>MOLECULE
molecule
   36    38     1     0     0
SMALL
bcc


@<TRIPOS>ATOM
      1 CAO          0.0000     0.0000     0.0000 c3         1 N23      -0.032900
      2 CAB          1.5060     0.0000     0.0000 cc         1 N23      -0.044300
      3 NAA          2.2930     0.0000     1.1200 na         1 N23      -0.178400
      4 CAE          3.6210     0.0000     0.7590 ca         1 N23      -0.036200
      5 CAR          4.8090    -0.0010     1.4810 ca         1 N23      -0.143000
      6 CAT          6.0160    -0.0020     0.8150 ca         1 N23      -0.109000
      7 CAS          6.0580    -0.0030    -0.5720 ca         1 N23      -0.155000
      8 CAQ          4.9020    -0.0010    -1.3020 ca         1 N23      -0.081000
      9 CAD          3.6700    -0.0010    -0.6470 ca         1 N23      -0.092800
     10 CAC          2.2770    -0.0070    -1.1000 cd         1 N23      -0.159400
     11 CAN          1.7980    -0.0150    -2.5300 c3         1 N23      -0.017200
     12 CAP          1.6370     1.4250    -3.0220 c3         1 N23       0.116000
     13 NAM          1.1720     1.4160    -4.4110 ns         1 N23      -0.586900
     14 CAG          0.9590     2.5790    -5.0580 c          1 N23       0.703700
     15 OAK          1.1520     3.6360    -4.4870 o          1 N23      -0.600100
     16 CAF          0.4930     2.5700    -6.4470 cc         1 N23      -0.119700
     17 CAI          0.2420     3.6790    -7.2060 cd         1 N23      -0.079000
     18 CAL         -0.1840     3.3820    -8.4790 cd         1 N23      -0.172000
     19 CAJ         -0.2800     2.0760    -8.7550 cc         1 N23      -0.087100
     20 SAH          0.1770     1.1330    -7.4080 ss         1 N23      -0.108800
     21 HAO         -0.3610     0.9280    -0.4270 hc         1 N23       0.050700
     22 HAOA        -0.3610    -0.8340    -0.5900 hc         1 N23       0.050700
     23 HAOB        -0.3610    -0.0940     1.0170 hc         1 N23       0.050700
     24 HNAA         1.9530    -0.0000     2.0610 hn         1 N23       0.296700
     25 HAR          4.7870    -0.0010     2.5640 ha         1 N23       0.125000
     26 HAT          6.9410    -0.0030     1.3800 ha         1 N23       0.130000
     27 HAS          7.0140    -0.0040    -1.0800 ha         1 N23       0.129000
     28 HAQ          4.9430    -0.0010    -2.3850 ha         1 N23       0.129000
     29 HAN          0.8440    -0.5260    -2.5880 hc         1 N23       0.047700
     30 HANA         2.5220    -0.5300    -3.1500 hc         1 N23       0.047700
     31 HAP          0.9130     1.9390    -2.4020 h1         1 N23       0.058700
     32 HAPA         2.5910     1.9350    -2.9630 h1         1 N23       0.058700
     33 HNAM         1.0230     0.5460    -4.8830 hn         1 N23       0.311500
     34 HAI          0.3670     4.6910    -6.8410 ha         1 N23       0.172000
     35 HAL         -0.4270     4.1490    -9.2040 ha         1 N23       0.153000
     36 HAJ         -0.5990     1.6720    -9.7080 h4         1 N23       0.173000
@<TRIPOS>BOND
     1     1     2 1
     2     2     3 1
     3     2    10 2
     4     3     4 1
     5     4     5 ar
     6     4     9 ar
     7     5     6 ar
     8     6     7 ar
     9     7     8 ar
    10     8     9 ar
    11     9    10 1
    12    10    11 1
    13    11    12 1
    14    12    13 1
    15    13    14 1
    16    14    15 2
    17    14    16 1
    18    16    17 2
    19    16    20 1
    20    17    18 1
    21    18    19 2
    22    19    20 1
    23     1    21 1
    24     1    22 1
    25     1    23 1
    26     3    24 1
    27     5    25 1
    28     6    26 1
    29     7    27 1
    30     8    28 1
    31    11    29 1
    32    11    30 1
    33    12    31 1
    34    12    32 1
    35    13    33 1
    36    17    34 1
    37    18    35 1
    38    19    36 1
@<TRIPOS>SUBSTRUCTURE
     1 N23         1 TEMP              0 ****  ****    0 ROOT
