@<TRIPOS>MOLECULE
N23
   36    38     1     0     0
SMALL
bcc


@<TRIPOS>ATOM
      1 CAO          0.0000     0.0000     0.0000 c3         1 N23       0.095100
      2 CAB          1.5060     0.0000     0.0000 cc         1 N23      -0.245300
      3 NAA          2.2930     0.0000     1.1200 na         1 N23       0.364600
      4 CAE          3.6210     0.0000     0.7590 ca         1 N23      -0.226200
      5 CAR          4.8090    -0.0010     1.4810 ca         1 N23      -0.102000
      6 CAT          6.0160    -0.0020     0.8150 ca         1 N23      -0.086000
      7 CAS          6.0580    -0.0030    -0.5720 ca         1 N23      -0.129000
      8 CAQ          4.9020    -0.0010    -1.3020 ca         1 N23      -0.047000
      9 CAD          3.6700    -0.0010    -0.6470 ca         1 N23      -0.088800
     10 CAC          2.2770    -0.0070    -1.1000 cd         1 N23      -0.157400
     11 CAN          1.7980    -0.0150    -2.5300 c3         1 N23       0.059800
     12 CAP          1.6370     1.4250    -3.0220 c3         1 N23       0.046000
     13 NAM          1.1720     1.4160    -4.4110 ns         1 N23      -0.195900
     14 CAG          0.9590     2.5790    -5.0580 c          1 N23       0.630700
     15 OAK          1.1520     3.6360    -4.4870 o          1 N23      -0.644100
     16 CAF          0.4930     2.5700    -6.4470 cc         1 N23      -0.081700
     17 CAI          0.2420     3.6790    -7.2060 cd         1 N23      -0.042000
     18 CAL         -0.1840     3.3820    -8.4790 cd         1 N23      -0.143000
     19 CAJ         -0.2800     2.0760    -8.7550 cc         1 N23      -0.004100
     20 SAH          0.1770     1.1330    -7.4080 ss         1 N23      -0.235800
     21 HAO         -0.3610     0.9280    -0.4270 hc         1 N23       0.009367
     22 HAOA        -0.3610    -0.8340    -0.5900 hc         1 N23       0.009367
     23 HAOB        -0.3610    -0.0940     1.0170 hc         1 N23       0.009367
     24 HNAA         1.9530    -0.0000     2.0610 hn         1 N23       0.113700
     25 HAR          4.7870    -0.0010     2.5640 ha         1 N23       0.099000
     26 HAT          6.9410    -0.0030     1.3800 ha         1 N23       0.100000
     27 HAS          7.0140    -0.0040    -1.0800 ha         1 N23       0.102000
     28 HAQ          4.9430    -0.0010    -2.3850 ha         1 N23       0.101000
     29 HAN          0.8440    -0.5260    -2.5880 hc         1 N23       0.016200
     30 HANA         2.5220    -0.5300    -3.1500 hc         1 N23       0.016200
     31 HAP          0.9130     1.9390    -2.4020 h1         1 N23       0.031200
     32 HAPA         2.5910     1.9350    -2.9630 h1         1 N23       0.031200
     33 HNAM         1.0230     0.5460    -4.8830 hn         1 N23       0.179500
     34 HAI          0.3670     4.6910    -6.8410 ha         1 N23       0.140000
     35 HAL         -0.4270     4.1490    -9.2040 ha         1 N23       0.123000
     36 HAJ         -0.5990     1.6720    -9.7080 h4         1 N23       0.150000
@<TRIPOS>BOND
     1     1     2 1   
     2     1    21 1   
     3     1    22 1   
     4     1    23 1   
     5     2     3 1   
     6     2    10 2   
     7     3     4 1   
     8     3    24 1   
     9     4     5 ar  
    10     4     9 ar  
    11     5     6 ar  
    12     5    25 1   
    13     6     7 ar  
    14     6    26 1   
    15     7     8 ar  
    16     7    27 1   
    17     8     9 ar  
    18     8    28 1   
    19     9    10 1   
    20    10    11 1   
    21    11    12 1   
    22    11    29 1   
    23    11    30 1   
    24    12    13 1   
    25    12    31 1   
    26    12    32 1   
    27    13    14 1   
    28    13    33 1   
    29    14    15 2   
    30    14    16 1   
    31    16    17 2   
    32    16    20 1   
    33    17    18 1   
    34    17    34 1   
    35    18    19 2   
    36    18    35 1   
    37    19    20 1   
    38    19    36 1   
@<TRIPOS>SUBSTRUCTURE
     1 N23         1 TEMP              0 ****  ****    0 ROOT
