@<TRIPOS>MOLECULE
N24
   32    34     1     0     0
SMALL
bcc


@<TRIPOS>ATOM
      1 CAJ          0.0000     0.0000     0.0000 ca         1 N24      -0.056000
      2 CAN          1.3830     0.0000     0.0000 ca         1 N24       0.030100
      3 BrAR         2.3290    -0.0010    -1.6370 br         1 N24      -0.121100
      4 CAU          2.0740     0.0000     1.1990 ca         1 N24      -0.068000
      5 CAT          1.3820     0.0010     2.3950 ca         1 N24      -0.094000
      6 CAS         -0.0010     0.0010     2.3940 ca         1 N24      -0.072000
      7 CAF         -0.6910     0.0000     1.1970 ca         1 N24      -0.106300
      8 CAB         -2.1990     0.0010     1.1960 c3         1 N24       0.203100
      9 SAD         -2.8480     1.5350     1.9710 ss         1 N24      -0.385200
     10 CAH         -4.2150     0.6750     2.8470 c3         1 N24       0.023700
     11 CAE         -3.7170    -0.7560     2.8930 c          1 N24       0.609500
     12 OAK         -4.2040    -1.5790     3.6390 o          1 N24      -0.650500
     13 NAA         -2.7190    -1.0590     2.0710 n          1 N24      -0.004000
     14 CAC         -2.1790    -2.3520     2.0380 ca         1 N24      -0.102400
     15 CAG         -1.2150    -2.7260     2.9620 ca         1 N24      -0.049000
     16 CAM         -0.6830    -4.0030     2.9280 ca         1 N24      -0.064600
     17 CAO         -1.1110    -4.9080     1.9740 ca         1 N24      -0.045000
     18 CAL         -2.0720    -4.5410     1.0490 ca         1 N24      -0.174000
     19 CAI         -2.6130    -3.2670     1.0810 ca         1 N24       0.162100
     20 OAQ         -3.5620    -2.9070     0.1760 oh         1 N24      -0.486100
     21 Cl           0.5240    -4.4700     4.0850 cl         1 N24      -0.016400
     22 HAJ         -0.5420    -0.0010    -0.9380 ha         1 N24       0.122000
     23 HAU          3.1570     0.0000     1.2000 ha         1 N24       0.118000
     24 HAT          1.9230     0.0010     3.3340 ha         1 N24       0.112000
     25 HAS         -0.5430     0.0020     3.3320 ha         1 N24       0.121000
     26 HAB         -2.5870    -0.1100     0.1910 h2         1 N24       0.070700
     27 HAH         -4.3380     1.0700     3.8480 h1         1 N24       0.073700
     28 HAHA        -5.1360     0.7420     2.2810 h1         1 N24       0.073700
     29 HAG         -0.8790    -2.0190     3.7100 ha         1 N24       0.128000
     30 HAO         -0.6900    -5.9060     1.9490 ha         1 N24       0.115000
     31 HAL         -2.4070    -5.2530     0.3040 ha         1 N24       0.117000
     32 HOAQ        -4.1340    -3.6390     0.0130 ho         1 N24       0.413000
@<TRIPOS>BOND
     1     1     2 ar  
     2     1     7 ar  
     3     1    22 1   
     4     2     3 1   
     5     2     4 ar  
     6     4     5 ar  
     7     4    23 1   
     8     5     6 ar  
     9     5    24 1   
    10     6     7 ar  
    11     6    25 1   
    12     7     8 1   
    13     8     9 1   
    14     8    13 1   
    15     8    26 1   
    16     9    10 1   
    17    10    11 1   
    18    10    27 1   
    19    10    28 1   
    20    11    12 2   
    21    11    13 1   
    22    13    14 1   
    23    14    15 ar  
    24    14    19 ar  
    25    15    16 ar  
    26    15    29 1   
    27    16    17 ar  
    28    16    21 1   
    29    17    18 ar  
    30    17    30 1   
    31    18    19 ar  
    32    18    31 1   
    33    19    20 1   
    34    20    32 1   
@<TRIPOS>SUBSTRUCTURE
     1 N24         1 TEMP              0 ****  ****    0 ROOT
