@<TRIPOS>MOLECULE
molecule
   32    34     1     0     0
SMALL
bcc


@<TRIPOS>ATOM
      1 CAJ          0.0000     0.0000     0.0000 ca         1 N24      -0.078000
      2 CAN          1.3830     0.0000     0.0000 ca         1 N24      -0.021900
      3 BrAR         2.3290    -0.0010    -1.6370 br         1 N24      -0.088100
      4 CAU          2.0740     0.0000     1.1990 ca         1 N24      -0.088000
      5 CAT          1.3820     0.0010     2.3950 ca         1 N24      -0.129000
      6 CAS         -0.0010     0.0010     2.3940 ca         1 N24      -0.085000
      7 CAF         -0.6910     0.0000     1.1970 ca         1 N24      -0.103300
      8 CAB         -2.1990     0.0010     1.1960 c3         1 N24       0.276100
      9 SAD         -2.8480     1.5350     1.9710 ss         1 N24      -0.336200
     10 CAH         -4.2150     0.6750     2.8470 c3         1 N24      -0.051300
     11 CAE         -3.7170    -0.7560     2.8930 c          1 N24       0.700500
     12 OAK         -4.2040    -1.5790     3.6390 o          1 N24      -0.606500
     13 NAA         -2.7190    -1.0590     2.0710 n          1 N24      -0.389000
     14 CAC         -2.1790    -2.3520     2.0380 ca         1 N24       0.037600
     15 CAG         -1.2150    -2.7260     2.9620 ca         1 N24      -0.077000
     16 CAM         -0.6830    -4.0030     2.9280 ca         1 N24       0.005400
     17 CAO         -1.1110    -4.9080     1.9740 ca         1 N24      -0.080000
     18 CAL         -2.0720    -4.5410     1.0490 ca         1 N24      -0.192000
     19 CAI         -2.6130    -3.2670     1.0810 ca         1 N24       0.139100
     20 OAQ         -3.5620    -2.9070     0.1760 oh         1 N24      -0.501100
     21 Cl           0.5240    -4.4700     4.0850 cl         1 N24      -0.100400
     22 HAJ         -0.5420    -0.0010    -0.9380 ha         1 N24       0.148000
     23 HAU          3.1570     0.0000     1.2000 ha         1 N24       0.147000
     24 HAT          1.9230     0.0010     3.3340 ha         1 N24       0.142000
     25 HAS         -0.5430     0.0020     3.3320 ha         1 N24       0.145000
     26 HAB         -2.5870    -0.1100     0.1910 h2         1 N24       0.096700
     27 HAH         -4.3380     1.0700     3.8480 h1         1 N24       0.105700
     28 HAHA        -5.1360     0.7420     2.2810 h1         1 N24       0.105700
     29 HAG         -0.8790    -2.0190     3.7100 ha         1 N24       0.157000
     30 HAO         -0.6900    -5.9060     1.9490 ha         1 N24       0.149000
     31 HAL         -2.4070    -5.2530     0.3040 ha         1 N24       0.145000
     32 HOAQ        -4.1340    -3.6390     0.0130 ho         1 N24       0.429000
@<TRIPOS>BOND
     1     1     2 ar
     2     1     7 ar
     3     2     3 1
     4     2     4 ar
     5     4     5 ar
     6     5     6 ar
     7     6     7 ar
     8     7     8 1
     9     8     9 1
    10     8    13 1
    11     9    10 1
    12    10    11 1
    13    11    12 2
    14    11    13 1
    15    13    14 1
    16    14    15 ar
    17    14    19 ar
    18    15    16 ar
    19    16    17 ar
    20    16    21 1
    21    17    18 ar
    22    18    19 ar
    23    19    20 1
    24     1    22 1
    25     4    23 1
    26     5    24 1
    27     6    25 1
    28     8    26 1
    29    10    27 1
    30    10    28 1
    31    15    29 1
    32    17    30 1
    33    18    31 1
    34    20    32 1
@<TRIPOS>SUBSTRUCTURE
     1 N24         1 TEMP              0 ****  ****    0 ROOT
