@<TRIPOS>MOLECULE
molecule
   26    27     1     0     0
SMALL
bcc


@<TRIPOS>ATOM
      1 O1           0.0000     0.0000     0.0000 os         1 N26      -0.476000
      2 C2           1.3590     0.0000     0.0000 ca         1 N26       0.192100
      3 C3           2.0330     0.0000     1.1880 ca         1 N26      -0.162000
      4 C4           3.4370    -0.0010     1.1900 ca         1 N26      -0.040500
      5 C5           4.1360    -0.0010    -0.0450 ca         1 N26      -0.040500
      6 C6           3.4090    -0.0010    -1.2490 ca         1 N26      -0.148000
      7 C7           2.0490    -0.0060    -1.2170 ca         1 N26      -0.138000
      8 C16          4.1640    -0.0010     2.3940 ca         1 N26      -0.148000
      9 C17          5.5240    -0.0030     2.3620 ca         1 N26      -0.138000
     10 C18          6.2140    -0.0020     1.1450 ca         1 N26       0.192100
     11 C19          5.5400    -0.0020    -0.0430 ca         1 N26      -0.162000
     12 P20         -0.6540     1.4710     0.0000 p5         1 N26       1.173400
     13 O2           7.5730    -0.0020     1.1450 os         1 N26      -0.476000
     14 P3           8.2280    -1.4730     1.1450 p5         1 N26       1.173400
     15 O4          -0.2860     2.2220    -1.3750 o          1 N26      -0.913500
     16 O5          -2.2540     1.3470     0.1320 o          1 N26      -0.913500
     17 O7          -0.1240     2.2470     1.1440 o          1 N26      -0.913500
     18 O8           7.6970    -2.2500     2.2880 o          1 N26      -0.913500
     19 O9           7.8600    -2.2240    -0.2310 o          1 N26      -0.913500
     20 O10          9.8280    -1.3480     1.2780 o          1 N26      -0.913500
     21 H3           1.4900    -0.1170     2.1190 ha         1 N26       0.128000
     22 H6           3.9310    -0.0050    -2.1980 ha         1 N26       0.092500
     23 H7           1.4930    -0.0160    -2.1460 ha         1 N26       0.118000
     24 H16          3.6420    -0.0020     3.3440 ha         1 N26       0.092500
     25 H17          6.0800    -0.0030     3.2910 ha         1 N26       0.118000
     26 H19          6.0860    -0.0010    -0.9790 ha         1 N26       0.128000
@<TRIPOS>BOND
     1    18    14 1
     2    20    14 1
     3    13    14 1
     4    13    10 1
     5    14    19 1
     6    11    10 ar
     7    11     5 ar
     8    10     9 ar
     9     6     5 ar
    10     6     7 ar
    11     5     4 ar
    12     7     2 ar
    13     9     8 ar
    14     4     8 ar
    15     4     3 ar
    16     2     3 ar
    17     2     1 1
    18     1    12 1
    19    17    12 1
    20    12    15 1
    21    12    16 1
    22     3    21 1
    23     6    22 1
    24     7    23 1
    25     8    24 1
    26     9    25 1
    27    11    26 1
@<TRIPOS>SUBSTRUCTURE
     1 N26         1 TEMP              0 ****  ****    0 ROOT
