@<TRIPOS>MOLECULE
N2A
   79    84     1     0     0
SMALL
bcc


@<TRIPOS>ATOM
      1 C1           0.0000     0.0000     0.0000 ca         1 N2A      -0.031600
      2 C2           1.3820     0.0000     0.0000 ca         1 N2A      -0.086000
      3 C3           2.0720     0.0000     1.2030 ca         1 N2A      -0.138400
      4 C4           1.3670    -0.0000     2.4090 ca         1 N2A      -0.149400
      5 C5          -0.0190    -0.0010     2.3990 ca         1 N2A      -0.072000
      6 C6          -0.6990    -0.0000     1.1960 ca         1 N2A      -0.098000
      7 N13          2.3170     0.0010     3.4280 n          1 N2A       0.047000
      8 C14          3.5410     0.0010     2.8680 c          1 N2A       0.584500
      9 N15          3.4260     0.0000     1.5270 n          1 N2A       0.057000
     10 C20          4.5360     0.0000     0.5720 c3         1 N2A       0.035700
     11 C22          2.0310     0.0010     4.8650 c3         1 N2A       0.084300
     12 Cl24        -0.8660     0.0070    -1.5060 cl         1 N2A      -0.022400
     13 C26          5.3950     1.2500     0.7840 c3         1 N2A      -0.054900
     14 C27          6.5870     1.2150    -0.1750 c3         1 N2A       0.159300
     15 N28          7.3810     0.0050     0.0740 n3         1 N2A      -0.535600
     16 C29          6.5910    -1.2090    -0.1700 c3         1 N2A       0.159300
     17 C30          5.4000    -1.2440     0.7900 c3         1 N2A      -0.054900
     18 C37          8.6090     0.0060    -0.7330 c3         1 N2A       0.160800
     19 C39          9.5230    -1.1300    -0.2700 c3         1 N2A      -0.056400
     20 C41         10.8030    -1.1290    -1.1110 c3         1 N2A       0.012000
     21 N43         11.6780    -2.2160    -0.6670 n          1 N2A       0.076700
     22 C45         11.5760    -3.4380    -1.2340 c          1 N2A       0.603700
     23 C46         12.4410    -4.4680    -0.7800 cc         1 N2A      -0.229400
     24 C47         13.3480    -4.1680     0.2210 cd         1 N2A       0.156600
     25 N48         13.3860    -2.9360     0.7280 nd         1 N2A      -0.566300
     26 C49         12.5880    -1.9940     0.3000 cc         1 N2A       0.342800
     27 O56         10.7590    -3.6510    -2.1130 o          1 N2A      -0.680500
     28 O58          4.5910     0.0020     3.4820 o          1 N2A      -0.716500
     29 C60         12.3750    -5.8300    -1.3630 ca         1 N2A      -0.007800
     30 C62         11.2300    -6.6070    -1.1940 ca         1 N2A      -0.054000
     31 C63         11.1740    -7.8740    -1.7390 ca         1 N2A      -0.099000
     32 C64         12.2510    -8.3720    -2.4520 ca         1 N2A      -0.027600
     33 C65         13.3890    -7.6030    -2.6230 ca         1 N2A      -0.123300
     34 C66         13.4540    -6.3330    -2.0880 ca         1 N2A      -0.066000
     35 Cl73        12.1720    -9.9660    -3.1340 cl         1 N2A      -0.017400
     36 C75         14.5570    -8.1530    -3.4000 c3         1 N2A       0.109300
     37 N77         15.2670    -9.1410    -2.5830 ns         1 N2A      -0.197900
     38 C79         16.3530    -9.7680    -3.0760 c          1 N2A       0.597700
     39 O81         16.7440    -9.5130    -4.1980 o          1 N2A      -0.649100
     40 C83         17.0680   -10.7640    -2.2530 ca         1 N2A      -0.168600
     41 C85         18.1940   -11.4150    -2.7600 ca         1 N2A      -0.033500
     42 C86         18.8570   -12.3440    -1.9870 ca         1 N2A      -0.144000
     43 C87         18.4090   -12.6310    -0.7070 ca         1 N2A       0.124900
     44 C88         17.2910   -11.9870    -0.1980 ca         1 N2A      -0.144000
     45 C89         16.6250   -11.0530    -0.9600 ca         1 N2A      -0.033500
     46 F96         19.0630   -13.5420     0.0460 f          1 N2A      -0.126900
     47 H2           1.9250     0.0000    -0.9370 ha         1 N2A       0.119000
     48 H5          -0.5690    -0.0010     3.3330 ha         1 N2A       0.110000
     49 H6          -1.7820    -0.0000     1.1890 ha         1 N2A       0.118000
     50 H20          4.1490    -0.0030    -0.4400 h1         1 N2A       0.037700
     51 H22          2.9630     0.0030     5.4190 h1         1 N2A       0.020033
     52 H22A         1.4620    -0.8850     5.1200 h1         1 N2A       0.020033
     53 H22B         1.4580     0.8840     5.1200 h1         1 N2A       0.020033
     54 H26          5.7550     1.2710     1.8060 hc         1 N2A       0.043200
     55 H26A         4.8000     2.1340     0.5870 hc         1 N2A       0.043200
     56 H27          7.2040     2.0900    -0.0140 h1         1 N2A       0.011700
     57 H27A         6.2260     1.2040    -1.1960 h1         1 N2A       0.011700
     58 H29          7.2120    -2.0810    -0.0050 h1         1 N2A       0.011700
     59 H29A         6.2300    -1.2040    -1.1910 h1         1 N2A       0.011700
     60 H30          5.7600    -1.2580     1.8120 hc         1 N2A       0.043200
     61 H30A         4.8080    -2.1320     0.5980 hc         1 N2A       0.043200
     62 H37          8.3550    -0.1380    -1.7760 h1         1 N2A       0.011200
     63 H37A         9.1200     0.9530    -0.6120 h1         1 N2A       0.011200
     64 H39          9.0130    -2.0770    -0.3910 hc         1 N2A       0.037200
     65 H39A         9.7770    -0.9870     0.7730 hc         1 N2A       0.037200
     66 H41         10.5490    -1.2720    -2.1540 h1         1 N2A       0.046200
     67 H41A        11.3140    -0.1810    -0.9900 h1         1 N2A       0.046200
     68 H47         14.0220    -4.9310     0.5930 h4         1 N2A       0.126000
     69 H49         12.6560    -1.0070     0.7420 h5         1 N2A       0.013800
     70 H62         10.3870    -6.2190    -0.6360 ha         1 N2A       0.114000
     71 H63         10.2850    -8.4790    -1.6090 ha         1 N2A       0.117000
     72 H66         14.3450    -5.7330    -2.2220 ha         1 N2A       0.115000
     73 H75         15.2320    -7.3450    -3.6570 h1         1 N2A       0.036200
     74 H75A        14.1980    -8.6250    -4.3060 h1         1 N2A       0.036200
     75 HN77        14.9610    -9.3290    -1.6490 hn         1 N2A       0.182500
     76 H85         18.5450   -11.1910    -3.7600 ha         1 N2A       0.119000
     77 H86         19.7310   -12.8490    -2.3800 ha         1 N2A       0.122000
     78 H88         16.9460   -12.2140     0.8040 ha         1 N2A       0.122000
     79 H89         15.7510   -10.5510    -0.5610 ha         1 N2A       0.119000
@<TRIPOS>BOND
     1     1     2 ar  
     2     1     6 ar  
     3     1    12 1   
     4     2     3 ar  
     5     2    47 1   
     6     3     4 ar  
     7     3     9 1   
     8     4     5 ar  
     9     4     7 1   
    10     5     6 ar  
    11     5    48 1   
    12     6    49 1   
    13     7     8 1   
    14     7    11 1   
    15     8     9 1   
    16     8    28 2   
    17     9    10 1   
    18    10    13 1   
    19    10    17 1   
    20    10    50 1   
    21    11    51 1   
    22    11    52 1   
    23    11    53 1   
    24    13    14 1   
    25    13    54 1   
    26    13    55 1   
    27    14    15 1   
    28    14    56 1   
    29    14    57 1   
    30    15    16 1   
    31    15    18 1   
    32    16    17 1   
    33    16    58 1   
    34    16    59 1   
    35    17    60 1   
    36    17    61 1   
    37    18    19 1   
    38    18    62 1   
    39    18    63 1   
    40    19    20 1   
    41    19    64 1   
    42    19    65 1   
    43    20    21 1   
    44    20    66 1   
    45    20    67 1   
    46    21    22 1   
    47    21    26 1   
    48    22    23 1   
    49    22    27 2   
    50    23    24 2   
    51    23    29 1   
    52    24    25 1   
    53    24    68 1   
    54    25    26 2   
    55    26    69 1   
    56    29    30 ar  
    57    29    34 ar  
    58    30    31 ar  
    59    30    70 1   
    60    31    32 ar  
    61    31    71 1   
    62    32    33 ar  
    63    32    35 1   
    64    33    34 ar  
    65    33    36 1   
    66    34    72 1   
    67    36    37 1   
    68    36    73 1   
    69    36    74 1   
    70    37    38 1   
    71    37    75 1   
    72    38    39 2   
    73    38    40 1   
    74    40    41 ar  
    75    40    45 ar  
    76    41    42 ar  
    77    41    76 1   
    78    42    43 ar  
    79    42    77 1   
    80    43    44 ar  
    81    43    46 1   
    82    44    45 ar  
    83    44    78 1   
    84    45    79 1   
@<TRIPOS>SUBSTRUCTURE
     1 N2A         1 TEMP              0 ****  ****    0 ROOT
