@<TRIPOS>MOLECULE
N2B
   18    18     1     0     0
SMALL
bcc


@<TRIPOS>ATOM
      1 C1         -0.0700   -0.0230    0.0350 ca        1 N2B     -0.077300
      2 C2          1.3270   -0.1180    0.0140 ca        1 N2B     -0.128000
      3 C3          2.0520   -0.1010    1.2030 ca        1 N2B     -0.128000
      4 C4          1.3890    0.0120    2.4260 ca        1 N2B     -0.134000
      5 C5         -0.0020    0.1080    2.4530 ca        1 N2B     -0.128000
      6 C6         -0.7290    0.0910    1.2640 ca        1 N2B     -0.128000
      7 C1'        -0.8400   -0.0340   -1.2400 c3        1 N2B     -0.038100
      8 C2'        -0.8610   -1.4020   -1.8780 c3        1 N2B     -0.089100
      9 H2          1.8500   -0.2070   -0.9500 ha        1 N2B      0.130000
     10 H3          3.1490   -0.1760    1.1780 ha        1 N2B      0.130000
     11 H4          1.9610    0.0260    3.3640 ha        1 N2B      0.130000
     12 H5         -0.5280    0.1980    3.4150 ha        1 N2B      0.130000
     13 H6         -1.8270    0.1680    1.2920 ha        1 N2B      0.130000
     14 H1'1       -0.3770    0.7020   -1.9530 hc        1 N2B      0.046700
     15 H1'2       -1.8940    0.3060   -1.0540 hc        1 N2B      0.046700
     16 H2'1        0.1780   -1.7560   -2.0820 hc        1 N2B      0.036033
     17 H2'2       -1.3590   -2.1430   -1.2070 hc        1 N2B      0.036033
     18 H2'3       -1.4210   -1.3660   -2.8440 hc        1 N2B      0.036033
@<TRIPOS>BOND
     1    1    2 ar  
     2    1    6 ar  
     3    1    7 1   
     4    2    3 ar  
     5    2    9 1   
     6    3    4 ar  
     7    3   10 1   
     8    4    5 ar  
     9    4   11 1   
    10    5    6 ar  
    11    5   12 1   
    12    6   13 1   
    13    7    8 1   
    14    7   14 1   
    15    7   15 1   
    16    8   16 1   
    17    8   17 1   
    18    8   18 1   
@<TRIPOS>SUBSTRUCTURE
     1 N2B         1 TEMP              0 ****  ****    0 ROOT
