@<TRIPOS>MOLECULE
molecule
   18    18     1     0     0
SMALL
bcc


@<TRIPOS>ATOM
      1 C1           0.0000     0.0000     0.0000 ca         1 N2B      -0.080300
      2 C2           1.3830     0.0000     0.0000 ca         1 N2B      -0.126000
      3 C3           2.0740     0.0000     1.1970 ca         1 N2B      -0.126000
      4 C4           1.3820     0.0010     2.3940 ca         1 N2B      -0.133000
      5 C5           0.0000     0.0010     2.3940 ca         1 N2B      -0.126000
      6 C6          -0.6920     0.0000     1.1970 ca         1 N2B      -0.126000
      7 C1'         -0.7530     0.0050    -1.3050 c3         1 N2B      -0.039100
      8 C2'         -1.0090    -1.4350    -1.7540 c3         1 N2B      -0.087100
      9 H2           1.9240    -0.0000    -0.9380 ha         1 N2B       0.129000
     10 H3           3.1570     0.0000     1.1970 ha         1 N2B       0.128000
     11 H4           1.9240     0.0010     3.3330 ha         1 N2B       0.128000
     12 H5          -0.5410     0.0010     3.3320 ha         1 N2B       0.128000
     13 H6          -1.7750     0.0000     1.1980 ha         1 N2B       0.129000
     14 H1'1        -0.1680     0.5200    -2.0580 hc         1 N2B       0.046700
     15 H1'2        -1.7000     0.5160    -1.1730 hc         1 N2B       0.046700
     16 H2'1        -1.4910    -1.9830    -0.9530 hc         1 N2B       0.036033
     17 H2'2        -0.0660    -1.9090    -2.0000 hc         1 N2B       0.036033
     18 H2'3        -1.6500    -1.4330    -2.6270 hc         1 N2B       0.036033
@<TRIPOS>BOND
     1     1     2 ar
     2     1     6 ar
     3     1     7 1
     4     2     3 ar
     5     2     9 1
     6     3     4 ar
     7     3    10 1
     8     4     5 ar
     9     4    11 1
    10     5     6 ar
    11     5    12 1
    12     6    13 1
    13     7     8 1
    14     7    14 1
    15     7    15 1
    16     8    16 1
    17     8    17 1
    18     8    18 1
@<TRIPOS>SUBSTRUCTURE
     1 N2B         1 TEMP              0 ****  ****    0 ROOT
