@<TRIPOS>MOLECULE
molecule
   79    84     1     0     0
SMALL
bcc


@<TRIPOS>ATOM
      1 C1           0.0000     0.0000     0.0000 ca         1 N2D       0.029400
      2 C2           1.3820     0.0000     0.0000 ca         1 N2D      -0.122000
      3 Cl2         -0.8640     0.0010    -1.5050 cl         1 N2D      -0.102400
      4 C3           2.0720     0.0000     1.2030 ca         1 N2D       0.007600
      5 Cl3         17.2740    -1.6210     5.0410 cl         1 N2D      -0.092400
      6 C4           1.3680    -0.0000     2.4090 ca         1 N2D      -0.003400
      7 C5          -0.0190    -0.0010     2.3990 ca         1 N2D      -0.116000
      8 C6          -0.6970    -0.0050     1.1970 ca         1 N2D      -0.121000
      9 N13          2.3170    -0.0010     3.4290 n          1 N2D      -0.359000
     10 C14          3.5410    -0.0010     2.8700 c          1 N2D       0.802500
     11 N15          3.4270    -0.0000     1.5280 n          1 N2D      -0.353000
     12 C22          2.0310    -0.0010     4.8660 c3         1 N2D       0.116300
     13 O24          4.5920    -0.0010     3.4830 o          1 N2D      -0.658500
     14 C26          4.5380    -0.0010     0.5730 c3         1 N2D       0.140700
     15 C28          5.3960     1.2480     0.7860 c3         1 N2D      -0.099400
     16 C29          6.5880     1.2110    -0.1730 c3         1 N2D       0.165800
     17 N30          7.3820     0.0020     0.0760 n3         1 N2D      -0.725600
     18 C31          6.5910    -1.2120    -0.1680 c3         1 N2D       0.165800
     19 C32          5.3990    -1.2470     0.7910 c3         1 N2D      -0.099400
     20 C39          8.6100     0.0020    -0.7300 c3         1 N2D       0.166800
     21 C41          9.5240    -1.1340    -0.2670 c3         1 N2D      -0.104400
     22 C43         10.8030    -1.1350    -1.1070 c3         1 N2D       0.109000
     23 N45         11.6790    -2.2220    -0.6640 n          1 N2D      -0.126800
     24 N47         12.5370    -1.9950     0.2630 nc         1 N2D      -0.440300
     25 C48         13.3520    -2.9220     0.7080 cd         1 N2D       0.387200
     26 C49         13.3070    -4.2280     0.1670 cd         1 N2D      -0.181600
     27 C50         12.4010    -4.4880    -0.8200 cc         1 N2D      -0.219200
     28 C51         11.5580    -3.4340    -1.2360 c          1 N2D       0.640700
     29 C58         14.3240    -2.6000     1.7800 ca         1 N2D      -0.103900
     30 C60         15.1900    -3.5810     2.2560 ca         1 N2D      -0.106000
     31 C61         16.0930    -3.2760     3.2550 ca         1 N2D      -0.123000
     32 C62         16.1370    -1.9980     3.7840 ca         1 N2D       0.039400
     33 C63         15.2770    -1.0200     3.3150 ca         1 N2D      -0.111300
     34 C64         14.3760    -1.3130     2.3130 ca         1 N2D      -0.076000
     35 O71         10.7280    -3.6210    -2.1130 o          1 N2D      -0.639500
     36 C75         15.3300     0.3700     3.8960 c3         1 N2D       0.162300
     37 N77         14.7100     0.3680     5.2240 ns         1 N2D      -0.579900
     38 C79         14.6430     1.5090     5.9380 c          1 N2D       0.675700
     39 C81         14.0180     1.5070     7.2780 ca         1 N2D      -0.145600
     40 C83         13.9460     2.6870     8.0200 ca         1 N2D      -0.085000
     41 C84         13.3620     2.6780     9.2690 ca         1 N2D      -0.138500
     42 C85         12.8460     1.5030     9.7870 ca         1 N2D      -0.106000
     43 C86         12.9120     0.3300     9.0560 ca         1 N2D      -0.138500
     44 C87         13.4900     0.3270     7.8030 ca         1 N2D      -0.085000
     45 O94         15.0970     2.5400     5.4810 o          1 N2D      -0.610100
     46 H2           1.9240     0.0810    -0.9350 ha         1 N2D       0.148000
     47 H5          -0.5680    -0.0040     3.3330 ha         1 N2D       0.141000
     48 H6          -1.7810    -0.0050     1.1890 ha         1 N2D       0.149000
     49 H22          2.9620     0.0030     5.4190 h1         1 N2D       0.054033
     50 H22A         1.4620    -0.8870     5.1210 h1         1 N2D       0.054033
     51 H22B         1.4570     0.8820     5.1190 h1         1 N2D       0.054033
     52 H26          4.1510    -0.0040    -0.4390 h1         1 N2D       0.062700
     53 H28          5.7570     1.2680     1.8080 hc         1 N2D       0.071200
     54 H28A         4.8020     2.1320     0.5890 hc         1 N2D       0.071200
     55 H29          7.2060     2.0860    -0.0130 h1         1 N2D       0.037200
     56 H29A         6.2270     1.2000    -1.1950 h1         1 N2D       0.037200
     57 H31          7.2120    -2.0850    -0.0030 h1         1 N2D       0.037200
     58 H31A         6.2310    -1.2070    -1.1890 h1         1 N2D       0.037200
     59 H32          5.7590    -1.2620     1.8130 hc         1 N2D       0.071200
     60 H32A         4.8070    -2.1340     0.5980 hc         1 N2D       0.071200
     61 H39          9.1210     0.9490    -0.6080 h1         1 N2D       0.035700
     62 H39A         8.3570    -0.1400    -1.7740 h1         1 N2D       0.035700
     63 H41          9.0120    -2.0810    -0.3880 hc         1 N2D       0.066700
     64 H41A         9.7780    -0.9910     0.7760 hc         1 N2D       0.066700
     65 H43         11.3150    -0.1870    -0.9860 h1         1 N2D       0.078200
     66 H43A        10.5500    -1.2780    -2.1510 h1         1 N2D       0.078200
     67 H49         13.9760    -5.0020     0.5250 ha         1 N2D       0.148000
     68 H50         12.3260    -5.4730    -1.2650 ha         1 N2D       0.173000
     69 H60         15.1560    -4.5820     1.8420 ha         1 N2D       0.139000
     70 H61         16.7680    -4.0390     3.6260 ha         1 N2D       0.150000
     71 H64         13.7040    -0.5460     1.9470 ha         1 N2D       0.162000
     72 H75         16.3630     0.6870     3.9800 h1         1 N2D       0.067200
     73 H75A        14.7950     1.0530     3.2480 h1         1 N2D       0.067200
     74 HN77        14.3170    -0.4760     5.5910 hn         1 N2D       0.319500
     75 H83         14.3490     3.6070     7.6160 ha         1 N2D       0.141000
     76 H84         13.3060     3.5930     9.8470 ha         1 N2D       0.134500
     77 H85         12.3890     1.5010    10.7700 ha         1 N2D       0.132000
     78 H86         12.5050    -0.5860     9.4660 ha         1 N2D       0.134500
     79 H87         13.5420    -0.5920     7.2320 ha         1 N2D       0.141000
@<TRIPOS>BOND
     1     1     2 ar
     2     1     3 1
     3     1     8 ar
     4     2     4 ar
     5     4     6 ar
     6     4    11 1
     7     5    32 1
     8     6     7 ar
     9     6     9 1
    10     7     8 ar
    11     9    10 1
    12     9    12 1
    13    10    11 1
    14    10    13 2
    15    11    14 1
    16    14    15 1
    17    14    19 1
    18    15    16 1
    19    16    17 1
    20    17    18 1
    21    17    20 1
    22    18    19 1
    23    20    21 1
    24    21    22 1
    25    22    23 1
    26    23    24 1
    27    23    28 1
    28    24    25 2
    29    25    26 1
    30    25    29 1
    31    26    27 2
    32    27    28 1
    33    28    35 2
    34    29    30 ar
    35    29    34 ar
    36    30    31 ar
    37    31    32 ar
    38    32    33 ar
    39    33    34 ar
    40    33    36 1
    41    36    37 1
    42    37    38 1
    43    38    39 1
    44    38    45 2
    45    39    40 ar
    46    39    44 ar
    47    40    41 ar
    48    41    42 ar
    49    42    43 ar
    50    43    44 ar
    51     2    46 1
    52     7    47 1
    53     8    48 1
    54    12    49 1
    55    12    50 1
    56    12    51 1
    57    14    52 1
    58    15    53 1
    59    15    54 1
    60    16    55 1
    61    16    56 1
    62    18    57 1
    63    18    58 1
    64    19    59 1
    65    19    60 1
    66    20    61 1
    67    20    62 1
    68    21    63 1
    69    21    64 1
    70    22    65 1
    71    22    66 1
    72    26    67 1
    73    27    68 1
    74    30    69 1
    75    31    70 1
    76    34    71 1
    77    36    72 1
    78    36    73 1
    79    37    74 1
    80    40    75 1
    81    41    76 1
    82    42    77 1
    83    43    78 1
    84    44    79 1
@<TRIPOS>SUBSTRUCTURE
     1 N2D         1 TEMP              0 ****  ****    0 ROOT
