@<TRIPOS>MOLECULE
N2D
   79    84     1     0     0
SMALL
bcc


@<TRIPOS>ATOM
      1 C1           0.0000     0.0000     0.0000 ca         1 N2D      -0.032600
      2 C2           1.3820     0.0000     0.0000 ca         1 N2D      -0.086000
      3 Cl2         -0.8640     0.0010    -1.5050 cl         1 N2D      -0.022400
      4 C3           2.0720     0.0000     1.2030 ca         1 N2D      -0.137400
      5 Cl3         17.2740    -1.6210     5.0410 cl         1 N2D      -0.010400
      6 C4           1.3680    -0.0000     2.4090 ca         1 N2D      -0.150400
      7 C5          -0.0190    -0.0010     2.3990 ca         1 N2D      -0.072000
      8 C6          -0.6970    -0.0050     1.1970 ca         1 N2D      -0.099000
      9 N13          2.3170    -0.0010     3.4290 n          1 N2D       0.047000
     10 C14          3.5410    -0.0010     2.8700 c          1 N2D       0.584500
     11 N15          3.4270    -0.0000     1.5280 n          1 N2D       0.056000
     12 C22          2.0310    -0.0010     4.8660 c3         1 N2D       0.085300
     13 O24          4.5920    -0.0010     3.4830 o          1 N2D      -0.715500
     14 C26          4.5380    -0.0010     0.5730 c3         1 N2D       0.035700
     15 C28          5.3960     1.2480     0.7860 c3         1 N2D      -0.054900
     16 C29          6.5880     1.2110    -0.1730 c3         1 N2D       0.158300
     17 N30          7.3820     0.0020     0.0760 n3         1 N2D      -0.534600
     18 C31          6.5910    -1.2120    -0.1680 c3         1 N2D       0.158300
     19 C32          5.3990    -1.2470     0.7910 c3         1 N2D      -0.054900
     20 C39          8.6100     0.0020    -0.7300 c3         1 N2D       0.160800
     21 C41          9.5240    -1.1340    -0.2670 c3         1 N2D      -0.056400
     22 C43         10.8030    -1.1350    -1.1070 c3         1 N2D       0.022000
     23 N45         11.6790    -2.2220    -0.6640 n          1 N2D       0.265200
     24 N47         12.5370    -1.9950     0.2630 nc         1 N2D      -0.497300
     25 C48         13.3520    -2.9220     0.7080 cd         1 N2D       0.365200
     26 C49         13.3070    -4.2280     0.1670 cd         1 N2D      -0.154600
     27 C50         12.4010    -4.4880    -0.8200 cc         1 N2D      -0.202200
     28 C51         11.5580    -3.4340    -1.2360 c          1 N2D       0.549700
     29 C58         14.3240    -2.6000     1.7800 ca         1 N2D      -0.107900
     30 C60         15.1900    -3.5810     2.2560 ca         1 N2D      -0.085000
     31 C61         16.0930    -3.2760     3.2550 ca         1 N2D      -0.097000
     32 C62         16.1370    -1.9980     3.7840 ca         1 N2D      -0.026600
     33 C63         15.2770    -1.0200     3.3150 ca         1 N2D      -0.120300
     34 C64         14.3760    -1.3130     2.3130 ca         1 N2D      -0.050000
     35 O71         10.7280    -3.6210    -2.1130 o          1 N2D      -0.683500
     36 C75         15.3300     0.3700     3.8960 c3         1 N2D       0.108300
     37 N77         14.7100     0.3680     5.2240 ns         1 N2D      -0.199900
     38 C79         14.6430     1.5090     5.9380 c          1 N2D       0.598700
     39 C81         14.0180     1.5070     7.2780 ca         1 N2D      -0.155600
     40 C83         13.9460     2.6870     8.0200 ca         1 N2D      -0.059000
     41 C84         13.3620     2.6780     9.2690 ca         1 N2D      -0.112000
     42 C85         12.8460     1.5030     9.7870 ca         1 N2D      -0.078000
     43 C86         12.9120     0.3300     9.0560 ca         1 N2D      -0.112000
     44 C87         13.4900     0.3270     7.8030 ca         1 N2D      -0.059000
     45 O94         15.0970     2.5400     5.4810 o          1 N2D      -0.651100
     46 H2           1.9240     0.0810    -0.9350 ha         1 N2D       0.119000
     47 H5          -0.5680    -0.0040     3.3330 ha         1 N2D       0.110000
     48 H6          -1.7810    -0.0050     1.1890 ha         1 N2D       0.118000
     49 H22          2.9620     0.0030     5.4190 h1         1 N2D       0.020033
     50 H22A         1.4620    -0.8870     5.1210 h1         1 N2D       0.020033
     51 H22B         1.4570     0.8820     5.1190 h1         1 N2D       0.020033
     52 H26          4.1510    -0.0040    -0.4390 h1         1 N2D       0.037700
     53 H28          5.7570     1.2680     1.8080 hc         1 N2D       0.042700
     54 H28A         4.8020     2.1320     0.5890 hc         1 N2D       0.042700
     55 H29          7.2060     2.0860    -0.0130 h1         1 N2D       0.011450
     56 H29A         6.2270     1.2000    -1.1950 h1         1 N2D       0.011450
     57 H31          7.2120    -2.0850    -0.0030 h1         1 N2D       0.011450
     58 H31A         6.2310    -1.2070    -1.1890 h1         1 N2D       0.011450
     59 H32          5.7590    -1.2620     1.8130 hc         1 N2D       0.042700
     60 H32A         4.8070    -2.1340     0.5980 hc         1 N2D       0.042700
     61 H39          9.1210     0.9490    -0.6080 h1         1 N2D       0.010700
     62 H39A         8.3570    -0.1400    -1.7740 h1         1 N2D       0.010700
     63 H41          9.0120    -2.0810    -0.3880 hc         1 N2D       0.037700
     64 H41A         9.7780    -0.9910     0.7760 hc         1 N2D       0.037700
     65 H43         11.3150    -0.1870    -0.9860 h1         1 N2D       0.049200
     66 H43A        10.5500    -1.2780    -2.1510 h1         1 N2D       0.049200
     67 H49         13.9760    -5.0020     0.5250 ha         1 N2D       0.124000
     68 H50         12.3260    -5.4730    -1.2650 ha         1 N2D       0.142000
     69 H60         15.1560    -4.5820     1.8420 ha         1 N2D       0.113000
     70 H61         16.7680    -4.0390     3.6260 ha         1 N2D       0.118000
     71 H64         13.7040    -0.5460     1.9470 ha         1 N2D       0.131000
     72 H75         16.3630     0.6870     3.9800 h1         1 N2D       0.036200
     73 H75A        14.7950     1.0530     3.2480 h1         1 N2D       0.036200
     74 HN77        14.3170    -0.4760     5.5910 hn         1 N2D       0.184500
     75 H83         14.3490     3.6070     7.6160 ha         1 N2D       0.114000
     76 H84         13.3060     3.5930     9.8470 ha         1 N2D       0.105500
     77 H85         12.3890     1.5010    10.7700 ha         1 N2D       0.102000
     78 H86         12.5050    -0.5860     9.4660 ha         1 N2D       0.105500
     79 H87         13.5420    -0.5920     7.2320 ha         1 N2D       0.114000
@<TRIPOS>BOND
     1     1     2 ar  
     2     1     3 1   
     3     1     8 ar  
     4     2     4 ar  
     5     2    46 1   
     6     4     6 ar  
     7     4    11 1   
     8     5    32 1   
     9     6     7 ar  
    10     6     9 1   
    11     7     8 ar  
    12     7    47 1   
    13     8    48 1   
    14     9    10 1   
    15     9    12 1   
    16    10    11 1   
    17    10    13 2   
    18    11    14 1   
    19    12    49 1   
    20    12    50 1   
    21    12    51 1   
    22    14    15 1   
    23    14    19 1   
    24    14    52 1   
    25    15    16 1   
    26    15    53 1   
    27    15    54 1   
    28    16    17 1   
    29    16    55 1   
    30    16    56 1   
    31    17    18 1   
    32    17    20 1   
    33    18    19 1   
    34    18    57 1   
    35    18    58 1   
    36    19    59 1   
    37    19    60 1   
    38    20    21 1   
    39    20    61 1   
    40    20    62 1   
    41    21    22 1   
    42    21    63 1   
    43    21    64 1   
    44    22    23 1   
    45    22    65 1   
    46    22    66 1   
    47    23    24 1   
    48    23    28 1   
    49    24    25 2   
    50    25    26 1   
    51    25    29 1   
    52    26    27 2   
    53    26    67 1   
    54    27    28 1   
    55    27    68 1   
    56    28    35 2   
    57    29    30 ar  
    58    29    34 ar  
    59    30    31 ar  
    60    30    69 1   
    61    31    32 ar  
    62    31    70 1   
    63    32    33 ar  
    64    33    34 ar  
    65    33    36 1   
    66    34    71 1   
    67    36    37 1   
    68    36    72 1   
    69    36    73 1   
    70    37    38 1   
    71    37    74 1   
    72    38    39 1   
    73    38    45 2   
    74    39    40 ar  
    75    39    44 ar  
    76    40    41 ar  
    77    40    75 1   
    78    41    42 ar  
    79    41    76 1   
    80    42    43 ar  
    81    42    77 1   
    82    43    44 ar  
    83    43    78 1   
    84    44    79 1   
@<TRIPOS>SUBSTRUCTURE
     1 N2D         1 TEMP              0 ****  ****    0 ROOT
