@<TRIPOS>MOLECULE
N2F
   27    26     1     0     0
SMALL
bcc


@<TRIPOS>ATOM
      1 O1         -0.3990    0.6850    0.6690 os        1 N2F     -0.000000
      2 C2          0.3580   -0.3530    0.1210 c2        1 N2F     -0.085000
      3 C3          0.6150   -1.3400    1.0660 c2        1 N2F     -0.106000
      4 C4         -0.0150   -0.8880    2.2760 c2        1 N2F     -0.077000
      5 C5         -0.6170    0.3360    2.0020 c2        1 N2F     -0.678000
      6 O3          0.4240    0.7320   -1.9100 o         1 N2F     -0.453700
      7 O2          1.3720   -1.1490   -1.7620 o         1 N2F     -0.453700
      8 N           0.7410   -0.2410   -1.2900 no        1 N2F      0.867400
      9 H3          1.1760   -2.2620    0.9170 ha        1 N2F      0.196000
     10 H4         -0.0220   -1.4150    3.2320 ha        1 N2F      0.195000
     11 S1         -1.5500    1.3740    2.9960 s6        1 N2F      2.924000
     12 O4         -2.7820    1.6100    2.3720 o         1 N2F     -0.925500
     13 O5         -1.5850    0.7700    4.2550 o         1 N2F     -0.925500
     14 C1         -0.6300    2.7320    2.9700 c2        1 N2F     -0.925000
     15 C6         -3.1110    3.8030    1.3510 c1        1 N2F      0.146000
     16 C7         -4.3160    3.5280    0.9080 c2        1 N2F     -0.414000
     17 C8         -5.2230    4.3660    0.1570 c2        1 N2F     -0.084000
     18 C9          1.5840    3.3270    4.1930 c2        1 N2F     -0.209000
     19 C10         0.4820    3.0160    3.5870 c1        1 N2F      0.076000
     20 C11        -6.4380    3.9740   -0.2310 c2        1 N2F     -0.220000
     21 H5         -1.0700    3.5500    2.3310 h4        1 N2F      0.252000
     22 H6         -4.6690    2.4960    1.1550 ha        1 N2F      0.215000
     23 H7         -4.8510    5.3750   -0.0880 ha        1 N2F      0.121000
     24 H8          1.5920    3.7640    5.2040 ha        1 N2F      0.167500
     25 H9         -6.8440    2.9780   -0.0080 ha        1 N2F      0.114500
     26 H10         2.5720    3.1680    3.7340 ha        1 N2F      0.167500
     27 H11        -7.1050    4.6330   -0.8010 ha        1 N2F      0.114500
@<TRIPOS>BOND
     1    1    2 1
     2    1    5 1
     3    2    3 1
     4    2    8 1
     5    3    4 1
     6    3    9 1
     7    4    5 1
     8    4   10 1
     9    5   11 1
    10    6    8 2
    11    7    8 2
    12   11   12 1
    13   11   13 1
    14   11   14 1
    15   14   19 1
    16   14   21 1
    17   15   16 1
    18   16   17 1
    19   16   22 1
    20   17   20 1
    21   17   23 1
    22   18   19 1
    23   18   24 1
    24   18   26 1
    25   20   25 1
    26   20   27 1
@<TRIPOS>SUBSTRUCTURE
     1 N2F         1 TEMP              0 ****  ****    0 ROOT
