@<TRIPOS>MOLECULE
molecule
   54    58     1     0     0
SMALL
bcc


@<TRIPOS>ATOM
      1 P            0.0000     0.0000     0.0000 p5         1 N2G       1.176900
      2 O1P          1.6100     0.0000     0.0000 o          1 N2G      -0.888500
      3 O2P         -0.4930     0.0000     1.3960 o          1 N2G      -0.888500
      4 O3P         -0.5370     1.3140    -0.7580 o          1 N2G      -0.888500
      5 O5'         -0.5360    -1.3150    -0.7580 os         1 N2G      -0.564200
      6 CAZ         -4.8120   -10.5310    -6.2810 ca         1 N2G      -0.017000
      7 CAK         -5.8960   -10.2370    -5.4360 ca         1 N2G      -0.106000
      8 CAF         -7.1280   -10.7410    -5.7200 ca         1 N2G      -0.138000
      9 CAE         -7.3320   -11.5490    -6.8390 ca         1 N2G      -0.127000
     10 CAI         -6.3050   -11.8550    -7.6780 ca         1 N2G      -0.129000
     11 CAY         -5.0200   -11.3520    -7.4170 ca         1 N2G      -0.029000
     12 CAJ         -3.9360   -11.6460    -8.2620 ca         1 N2G      -0.137000
     13 CAG         -2.7040   -11.1410    -7.9780 ca         1 N2G      -0.128000
     14 CAH         -2.5000   -10.3340    -6.8600 ca         1 N2G      -0.130000
     15 CAV         -3.5260   -10.0230    -6.0230 ca         1 N2G      -0.060300
     16 CAM         -2.5080    -9.5960    -4.3950 c3         1 N2G       0.231100
     17 C2          -2.1870    -9.6950    -1.9600 cc         1 N2G       0.690800
     18 N1          -2.0350   -10.4220    -0.8180 ns         1 N2G      -0.484400
     19 C6          -1.8800    -9.7980     0.3720 c          1 N2G       0.642000
     20 O6          -1.7430   -10.4400     1.4000 o          1 N2G      -0.636500
     21 N3          -2.1840    -8.3810    -1.9540 nd         1 N2G      -0.708100
     22 C4          -2.0360    -7.6950    -0.8140 cd         1 N2G       0.098800
     23 C5          -1.8810    -8.3840     0.3950 cc         1 N2G       0.183800
     24 N7          -1.7540    -7.4550     1.3730 nc         1 N2G      -0.655000
     25 C8          -1.8270    -6.2660     0.8510 cd         1 N2G       0.461400
     26 N9          -1.9940    -6.3640    -0.5000 na         1 N2G      -0.166900
     27 CBE         -2.1140    -5.2480    -1.4420 c3         1 N2G       0.238800
     28 OAU         -1.4960    -4.0610    -0.8970 os         1 N2G      -0.370600
     29 CAO         -3.5970    -4.8660    -1.6370 c3         1 N2G      -0.156400
     30 CBC         -3.5760    -3.3260    -1.7590 c3         1 N2G       0.104100
     31 CBD         -2.0820    -2.9600    -1.6230 c3         1 N2G       0.126100
     32 CAN         -1.9220    -1.6570    -0.8350 c3         1 N2G       0.229400
     33 O3'         -4.0780    -2.9180    -3.0320 oh         1 N2G      -0.600800
     34 HAN1        -2.3170    -1.7890     0.1650 h1         1 N2G       0.026200
     35 HAN2        -2.4630    -0.8630    -1.3350 h1         1 N2G       0.026200
     36 HAE         -8.3220   -11.9380    -7.0420 ha         1 N2G       0.121000
     37 HAI         -6.4790   -12.4840    -8.5430 ha         1 N2G       0.126000
     38 HAJ         -4.0790   -12.2720    -9.1340 ha         1 N2G       0.126000
     39 HAG         -1.8690   -11.3740    -8.6270 ha         1 N2G       0.125000
     40 HAH         -1.5100    -9.9450    -6.6560 ha         1 N2G       0.140000
     41 HAM1        -3.1660    -9.1360    -3.6670 h1         1 N2G       0.086200
     42 HAM2        -1.7050    -8.9110    -4.6400 h1         1 N2G       0.086200
     43 H1          -2.0380   -11.4220    -0.8590 hn         1 N2G       0.323500
     44 H8          -1.7640    -5.3370     1.4050 h5         1 N2G       0.107100
     45 HBE         -1.6640    -5.5010    -2.3950 h2         1 N2G       0.079700
     46 HAO1        -3.9870    -5.3120    -2.5440 hc         1 N2G       0.055700
     47 HAO2        -4.1820    -5.1690    -0.7760 hc         1 N2G       0.055700
     48 HBD         -1.6270    -2.8730    -2.6030 h1         1 N2G       0.073700
     49 HBC         -4.1490    -2.8760    -0.9570 h1         1 N2G       0.054700
     50 H3'         -4.9360    -2.5420    -2.9260 ho         1 N2G       0.393000
     51 HAK         -5.7520    -9.6110    -4.5640 ha         1 N2G       0.144000
     52 N2          -2.3430   -10.3560    -3.1530 nu         1 N2G      -0.865200
     53 HAF         -7.9610   -10.5120    -5.0680 ha         1 N2G       0.127000
     54 H2          -2.7610   -11.2600    -3.0610 hn         1 N2G       0.415800
@<TRIPOS>BOND
     1     1     2 1
     2     1     3 1
     3     1     4 1
     4     1     5 1
     5     5    32 1
     6     6     7 ar
     7     6    11 ar
     8     6    15 ar
     9     7     8 ar
    10     8     9 ar
    11     9    10 ar
    12    10    11 ar
    13    11    12 ar
    14    12    13 ar
    15    13    14 ar
    16    14    15 ar
    17    15    16 1
    18    16    52 1
    19    52    17 1
    20    17    18 1
    21    17    21 2
    22    18    19 1
    23    19    20 2
    24    19    23 1
    25    21    22 1
    26    22    23 2
    27    22    26 1
    28    23    24 1
    29    24    25 2
    30    25    26 1
    31    26    27 1
    32    27    28 1
    33    27    29 1
    34    28    31 1
    35    29    30 1
    36    30    31 1
    37    30    33 1
    38    31    32 1
    39    32    34 1
    40    32    35 1
    41     7    51 1
    42     8    53 1
    43     9    36 1
    44    10    37 1
    45    12    38 1
    46    13    39 1
    47    14    40 1
    48    16    41 1
    49    16    42 1
    50    52    54 1
    51    18    43 1
    52    25    44 1
    53    27    45 1
    54    29    46 1
    55    29    47 1
    56    31    48 1
    57    30    49 1
    58    33    50 1
@<TRIPOS>SUBSTRUCTURE
     1 N2G         1 TEMP              0 ****  ****    0 ROOT
