@<TRIPOS>MOLECULE
N2H
   24    23     1     0     0
SMALL
bcc


@<TRIPOS>ATOM
      1 C4           0.0000     0.0000     0.0000 c3         1 N2H      -0.019400
      2 C5           1.5300     0.0000     0.0000 c3         1 N2H      -0.034400
      3 C6           2.0400     0.0000     1.4420 c3         1 N2H      -0.052200
      4 O8          -2.3520    -1.3010    -3.3830 oh         1 N2H      -0.589800
      5 C1          -2.5070     0.0000    -2.8130 c3         1 N2H       0.574100
      6 O9          -3.8920     0.3490    -2.7900 oh         1 N2H      -0.589800
      7 N2          -1.9800    -0.0000    -1.4420 n7         1 N2H      -0.565200
      8 C3          -0.5100    -0.0000    -1.4420 c3         1 N2H       0.151800
      9 N7           3.5100     0.0000     1.4420 nz         1 N2H       0.085400
     10 H1          -0.3610    -0.8840     0.5110 hc         1 N2H       0.034200
     11 H2          -0.3610     0.8840     0.5110 hc         1 N2H       0.034200
     12 H3           1.8910    -0.8840    -0.5110 hc         1 N2H       0.033700
     13 H4           1.8910     0.8840    -0.5110 hc         1 N2H       0.033700
     14 H5           1.6800    -0.8850     1.9520 hx         1 N2H       0.087200
     15 H6           1.6790     0.8840     1.9530 hx         1 N2H       0.087200
     16 H7          -2.6760    -1.2970    -4.2680 ho         1 N2H       0.403000
     17 H8          -4.0720     0.9650    -3.4810 ho         1 N2H       0.403000
     18 H9          -2.3140     0.8090    -0.9560 hn         1 N2H       0.268800
     19 H11         -0.1490    -0.8840    -1.9520 h1         1 N2H       0.014200
     20 H12         -0.1490     0.8850    -1.9520 h1         1 N2H       0.014200
     21 H13          3.8430     0.0000     2.3850 hn         1 N2H       0.223467
     22 H14          3.8430     0.8170     0.9700 hn         1 N2H       0.223467
     23 H16         -1.9620     0.7220    -3.4090 h3         1 N2H      -0.046300
     24 H73          3.8440    -0.8110     0.9590 hn         1 N2H       0.223467
@<TRIPOS>BOND
     1     1     2 1   
     2     1     8 1   
     3     1    10 1   
     4     1    11 1   
     5     2     3 1   
     6     2    12 1   
     7     2    13 1   
     8     3     9 1   
     9     3    14 1   
    10     3    15 1   
    11     4     5 1   
    12     4    16 1   
    13     5     6 1   
    14     5     7 1   
    15     5    23 1   
    16     6    17 1   
    17     7     8 1   
    18     7    18 1   
    19     8    19 1   
    20     8    20 1   
    21     9    21 1   
    22     9    22 1   
    23     9    24 1   
@<TRIPOS>SUBSTRUCTURE
     1 N2H         1 TEMP              0 ****  ****    0 ROOT
