@<TRIPOS>MOLECULE
N2I
   21    22     1     0     0
SMALL
bcc


@<TRIPOS>ATOM
      1 C1B          0.0000     0.0000     0.0000 c2         1 N2I       0.451100
      2 N1B          1.2910     0.0000     0.0000 ne         1 N2I      -0.460100
      3 C2           1.9760     0.0000     1.1900 ca         1 N2I       0.078400
      4 C3           1.5760     0.8630     2.2250 ca         1 N2I      -0.130000
      5 C4           2.2390     0.8820     3.4100 ca         1 N2I      -0.072000
      6 C4A          3.3390     0.0300     3.6150 ca         1 N2I      -0.043000
      7 C8A          3.7510    -0.8460     2.5780 ca         1 N2I      -0.027000
      8 C1           3.0520    -0.8530     1.3620 ca         1 N2I      -0.076000
      9 C5           4.0430     0.0350     4.8300 ca         1 N2I      -0.086000
     10 C6           5.1080    -0.7970     4.9970 ca         1 N2I      -0.101000
     11 C7           5.5130    -1.6570     3.9780 ca         1 N2I      -0.097000
     12 C8           4.8520    -1.6940     2.7890 ca         1 N2I      -0.088000
     13 H1          -0.5420    -0.0000     0.9380 h4         1 N2I      -0.049200
     14 H2          -0.5420    -0.0000    -0.9380 h4         1 N2I      -0.049200
     15 H3           0.7310     1.5240     2.0740 ha         1 N2I       0.108000
     16 H4           1.9190     1.5530     4.1990 ha         1 N2I       0.106000
     17 H5           3.4340    -1.4190     0.5210 ha         1 N2I       0.120000
     18 H6           3.7400     0.6980     5.6320 ha         1 N2I       0.105000
     19 H7           5.6510    -0.7870     5.9340 ha         1 N2I       0.101000
     20 H8           6.3640    -2.3090     4.1360 ha         1 N2I       0.101000
     21 H9           5.1780    -2.3670     2.0060 ha         1 N2I       0.107000
@<TRIPOS>BOND
     1     1     2 2   
     2     1    13 1   
     3     1    14 1   
     4     2     3 1   
     5     3     4 ar  
     6     3     8 ar  
     7     4     5 ar  
     8     4    15 1   
     9     5     6 ar  
    10     5    16 1   
    11     6     7 ar  
    12     6     9 ar  
    13     7     8 ar  
    14     7    12 ar  
    15     8    17 1   
    16     9    10 ar  
    17     9    18 1   
    18    10    11 ar  
    19    10    19 1   
    20    11    12 ar  
    21    11    20 1   
    22    12    21 1   
@<TRIPOS>SUBSTRUCTURE
     1 N2I         1 TEMP              0 ****  ****    0 ROOT
