@<TRIPOS>MOLECULE
N2M
   23    24     1     0     0
SMALL
bcc


@<TRIPOS>ATOM
      1 S            0.0000     0.0000     0.0000 s6         1 N2M       0.871100
      2 O1S          1.6340     0.0000     0.0000 o          1 N2M      -0.618200
      3 O2S         -0.4250     0.0000     1.3920 o          1 N2M      -0.618200
      4 O3S         -0.4520    -1.0390    -0.9130 o          1 N2M      -0.618200
      5 C1          -0.6410     2.6460     0.1120 ca         1 N2M       0.006000
      6 C2          -0.4580     1.5300    -0.7050 ca         1 N2M      -0.075500
      7 C3          -0.6410     1.6350    -2.0810 ca         1 N2M       0.011000
      8 C4          -1.0070     2.8580    -2.6450 ca         1 N2M      -0.163000
      9 C5          -1.5650     5.2300    -2.3890 ca         1 N2M       0.030600
     10 C6          -1.7480     6.3460    -1.5730 ca         1 N2M      -0.126000
     11 C7          -1.5660     6.2410    -0.1970 ca         1 N2M      -0.160000
     12 C8          -1.1990     5.0190     0.3670 ca         1 N2M      -0.067000
     13 C9          -1.0110     3.8840    -0.4390 ca         1 N2M      -0.057000
     14 C10         -1.1960     3.9910    -1.8380 ca         1 N2M      -0.011000
     15 N           -1.7630     5.3920    -3.7830 nv         1 N2M      -0.563200
     16 H3          -0.4860     0.7700    -2.7150 ha         1 N2M       0.123000
     17 H4          -1.1480     2.9330    -3.7170 ha         1 N2M       0.098000
     18 H6          -2.0300     7.3450    -1.8850 ha         1 N2M       0.094000
     19 H7          -1.7080     7.1060     0.4400 ha         1 N2M       0.092000
     20 H8          -1.0920     5.0820     1.4430 ha         1 N2M       0.098000
     21 HN1         -1.0010     5.6730    -4.3670 hn         1 N2M       0.264300
     22 HN2         -2.6740     5.2600    -4.1770 hn         1 N2M       0.264300
     23 H1          -0.4970     2.5570     1.1820 ha         1 N2M       0.126000
@<TRIPOS>BOND
     1     1     2 1   
     2     1     3 1   
     3     1     4 1   
     4     1     6 1   
     5     5     6 ar  
     6     5    13 ar  
     7     5    23 1   
     8     6     7 ar  
     9     7     8 ar  
    10     7    16 1   
    11     8    14 ar  
    12     8    17 1   
    13     9    10 ar  
    14     9    14 ar  
    15     9    15 1   
    16    10    11 ar  
    17    10    18 1   
    18    11    12 ar  
    19    11    19 1   
    20    12    13 ar  
    21    12    20 1   
    22    13    14 ar  
    23    15    21 1   
    24    15    22 1   
@<TRIPOS>SUBSTRUCTURE
     1 N2M         1 TEMP              0 ****  ****    0 ROOT
