@<TRIPOS>MOLECULE
molecule
    3     2     1     0     0
SMALL
bcc


@<TRIPOS>ATOM
      1 O3          12.6370   -11.9940    -7.6130 o          1 N2O      -0.300700
      2 N2          11.4880   -12.8160    -7.7030 n2         1 N2O       0.225700
      3 N1          10.6060   -13.4480    -7.7720 n1         1 N2O       0.075000
@<TRIPOS>BOND
     1     1     2 2
     2     2     3 3
@<TRIPOS>SUBSTRUCTURE
     1 N2O         1 TEMP              0 ****  ****    0 ROOT
