@<TRIPOS>MOLECULE
N2P
   23    22     1     0     0
SMALL
bcc


@<TRIPOS>ATOM
      1 C1           0.0000     0.0000     0.0000 c3         1 N2P      -0.047200
      2 C2           1.5290     0.0000     0.0000 c3         1 N2P      -0.033400
      3 C3           2.0410     0.0000     1.4410 c3         1 N2P      -0.005400
      4 C4           3.5700    -0.0010     1.4410 c3         1 N2P      -0.033400
      5 NE2         -0.4910    -0.0000    -1.3840 nz         1 N2P       0.092900
      6 C5           4.0810     0.0000     2.8820 c3         1 N2P      -0.047200
      7 N1           5.5490    -0.0000     2.8820 nz         1 N2P       0.092900
      8 H1C1        -0.3610     0.8850     0.5110 hx         1 N2P       0.090700
      9 H1C2        -0.3610    -0.8840     0.5110 hx         1 N2P       0.090700
     10 H2C1         1.8900    -0.8840    -0.5110 hc         1 N2P       0.039700
     11 H2C2         1.8900     0.8840    -0.5110 hc         1 N2P       0.039700
     12 H3C1         1.6800     0.8850     1.9520 hc         1 N2P       0.040700
     13 H3C2         1.6790    -0.8840     1.9520 hc         1 N2P       0.040700
     14 H4C1         3.9300    -0.8860     0.9310 hc         1 N2P       0.039700
     15 H4C2         3.9310     0.8830     0.9290 hc         1 N2P       0.039700
     16 HE21        -0.1580    -0.8180    -1.8550 hn         1 N2P       0.230133
     17 HE22        -1.4920    -0.0000    -1.3820 hn         1 N2P       0.230133
     18 H5C1         3.7210     0.8850     3.3920 hx         1 N2P       0.090700
     19 H5C2         3.7200    -0.8840     3.3940 hx         1 N2P       0.090700
     20 H1N1         5.8830     0.8160     2.4090 hn         1 N2P       0.230133
     21 H1N2         5.8830     0.0000     3.8250 hn         1 N2P       0.230133
     22 HE23        -0.1580     0.8160    -1.8560 hn         1 N2P       0.230133
     23 H13          5.8830    -0.8110     2.3980 hn         1 N2P       0.230133
@<TRIPOS>BOND
     1     1     2 1   
     2     1     5 1   
     3     1     8 1   
     4     1     9 1   
     5     2     3 1   
     6     2    10 1   
     7     2    11 1   
     8     3     4 1   
     9     3    12 1   
    10     3    13 1   
    11     4     6 1   
    12     4    14 1   
    13     4    15 1   
    14     5    16 1   
    15     5    17 1   
    16     5    22 1   
    17     6     7 1   
    18     6    18 1   
    19     6    19 1   
    20     7    20 1   
    21     7    21 1   
    22     7    23 1   
@<TRIPOS>SUBSTRUCTURE
     1 N2P         1 TEMP              0 ****  ****    0 ROOT
