@<TRIPOS>MOLECULE
N2T
   54    57     1     0     0
SMALL
bcc


@<TRIPOS>ATOM
      1 C1           0.0000     0.0000     0.0000 ca         1 N2T       0.096900
      2 C2           1.3820     0.0000     0.0000 ca         1 N2T      -0.103000
      3 C3           2.0760     0.0000     1.2100 ca         1 N2T      -0.031800
      4 C4           1.3680    -0.0060     2.4140 ca         1 N2T       0.108900
      5 C5          -0.0140    -0.0000     2.4010 ca         1 N2T      -0.104000
      6 C6          -0.6960    -0.0000     1.1980 ca         1 N2T      -0.105000
      7 C10          3.5530    -0.0010     1.2180 ce         1 N2T      -0.099400
      8 C11          4.4170    -1.1920     1.5410 c3         1 N2T       0.079200
      9 N12          5.8160    -0.7590     1.4320 n          1 N2T      -0.190800
     10 C13          5.7660     0.6610     1.0580 c3         1 N2T       0.143200
     11 C14          4.3150     1.0420     0.9420 c2         1 N2T      -0.118200
     12 C17          6.4360     1.5040     2.1120 ca         1 N2T      -0.088300
     13 C19          6.2590     1.2080     3.4500 ca         1 N2T      -0.079000
     14 C20          6.8760     1.9790     4.4170 ca         1 N2T      -0.099000
     15 C21          7.6630     3.0530     4.0460 ca         1 N2T      -0.098000
     16 C22          7.8370     3.3530     2.7080 ca         1 N2T      -0.099000
     17 C23          7.2230     2.5790     1.7400 ca         1 N2T      -0.079000
     18 C8           6.9180    -1.5070     1.6400 c          1 N2T       0.639100
     19 N1           6.8360    -2.8520     1.6010 n          1 N2T      -0.184800
     20 C35          8.0100    -3.6460     1.2310 c3         1 N2T       0.042700
     21 F40          2.0330    -0.0060     3.5900 f          1 N2T      -0.121900
     22 F41         -0.6730     0.0000    -1.1710 f          1 N2T      -0.123900
     23 O2           7.9850    -0.9680     1.8620 o          1 N2T      -0.673100
     24 C15          8.3770    -4.5860     2.3840 c3         1 N2T      -0.046900
     25 C26          5.5730    -3.5190     1.9280 c3         1 N2T       0.044300
     26 C12          7.6900    -4.4850    -0.0110 c3         1 N2T      -0.046900
     27 C9           9.5310    -5.4910     1.9480 c3         1 N2T       0.145800
     28 C16          8.8790    -5.3960    -0.3220 c3         1 N2T       0.145800
     29 N2           9.1150    -6.3080     0.8030 n7         1 N2T      -0.575200
     30 H2           1.9240     0.0020    -0.9380 ha         1 N2T       0.127000
     31 H5          -0.5640    -0.0030     3.3340 ha         1 N2T       0.125000
     32 H6          -1.7790     0.0020     1.1930 ha         1 N2T       0.124000
     33 H111         4.2140    -1.5300     2.5510 h1         1 N2T       0.033700
     34 H112         4.2230    -1.9900     0.8340 h1         1 N2T       0.033700
     35 H13          6.2570     0.8030     0.1020 h1         1 N2T       0.035700
     36 H14          4.0010     1.7580     0.1920 ha         1 N2T       0.129000
     37 H19          5.6420     0.3660     3.7410 ha         1 N2T       0.101500
     38 H20          6.7380     1.7450     5.4660 ha         1 N2T       0.100000
     39 H21          8.1460     3.6580     4.8040 ha         1 N2T       0.099000
     40 H22          8.4540     4.1940     2.4170 ha         1 N2T       0.100000
     41 H23          7.3590     2.8140     0.6920 ha         1 N2T       0.101500
     42 H35          8.8460    -2.9910     1.0190 h1         1 N2T       0.065700
     43 H151         8.6820    -4.0010     3.2430 hc         1 N2T       0.026700
     44 H152         7.5180    -5.1950     2.6400 hc         1 N2T       0.026700
     45 H261         4.9610    -3.5900     1.0370 h1         1 N2T       0.018033
     46 H262         5.7760    -4.5130     2.3070 h1         1 N2T       0.018033
     47 H263         5.0470    -2.9460     2.6830 h1         1 N2T       0.018033
     48 H121         7.5090    -3.8280    -0.8530 hc         1 N2T       0.026700
     49 H122         6.8120    -5.0900     0.1790 hc         1 N2T       0.026700
     50 H91          9.8080    -6.1390     2.7700 h1         1 N2T       0.007450
     51 H92         10.3780    -4.8790     1.6630 h1         1 N2T       0.007450
     52 H161         9.7630    -4.7900    -0.4830 h1         1 N2T       0.007450
     53 H162         8.6650    -5.9730    -1.2130 h1         1 N2T       0.007450
     54 HN2          9.8470    -6.9480     0.5660 hn         1 N2T       0.252800
@<TRIPOS>BOND
     1     1     2 ar  
     2     1     6 ar  
     3     1    22 1   
     4     2     3 ar  
     5     2    30 1   
     6     3     4 ar  
     7     3     7 1   
     8     4     5 ar  
     9     4    21 1   
    10     5     6 ar  
    11     5    31 1   
    12     6    32 1   
    13     7     8 1   
    14     7    11 2   
    15     8     9 1   
    16     8    33 1   
    17     8    34 1   
    18     9    10 1   
    19     9    18 1   
    20    10    11 1   
    21    10    12 1   
    22    10    35 1   
    23    11    36 1   
    24    12    13 ar  
    25    12    17 ar  
    26    13    14 ar  
    27    13    37 1   
    28    14    15 ar  
    29    14    38 1   
    30    15    16 ar  
    31    15    39 1   
    32    16    17 ar  
    33    16    40 1   
    34    17    41 1   
    35    18    19 1   
    36    18    23 2   
    37    19    20 1   
    38    19    25 1   
    39    20    24 1   
    40    20    26 1   
    41    20    42 1   
    42    24    27 1   
    43    24    43 1   
    44    24    44 1   
    45    25    45 1   
    46    25    46 1   
    47    25    47 1   
    48    26    28 1   
    49    26    48 1   
    50    26    49 1   
    51    27    29 1   
    52    27    50 1   
    53    27    51 1   
    54    28    29 1   
    55    28    52 1   
    56    28    53 1   
    57    29    54 1   
@<TRIPOS>SUBSTRUCTURE
     1 N2T         1 TEMP              0 ****  ****    0 ROOT
