@<TRIPOS>MOLECULE
N2Y
   25    26     1     0     0
SMALL
bcc


@<TRIPOS>ATOM
      1 N2           0.0000     0.0000     0.0000 n2         1 N2Y      -0.872100
      2 N3           2.0610     0.0000     1.1390 nh         1 N2Y      -0.520600
      3 C1           1.3040     0.0000     0.0000 c2         1 N2Y       0.581100
      4 N4           2.0610    -0.0010    -1.1400 nu         1 N2Y      -0.501200
      5 C2           3.4830    -0.0010    -0.7710 c3         1 N2Y       0.154800
      6 C3           3.4840    -0.0010     0.7690 c3         1 N2Y       0.163800
      7 C4           1.0970    -3.9730     3.8650 ca         1 N2Y       0.404300
      8 Cl1          0.9530    -5.6060     4.4360 cl         1 N2Y      -0.085000
      9 N6           2.2280    -3.3160     4.0430 nb         1 N2Y      -0.566000
     10 C5           2.3820    -2.0750     3.6250 ca         1 N2Y       0.425200
     11 C6           1.3540    -1.4130     2.9800 ca         1 N2Y      -0.256600
     12 C7           0.1500    -2.0700     2.7750 ca         1 N2Y      -0.040000
     13 C8           0.0270    -3.3760     3.2220 ca         1 N2Y      -0.208300
     14 H1          -0.5010     0.0000     0.8670 hn         1 N2Y       0.327400
     15 H3           3.8890     0.9530    -1.0850 h1         1 N2Y       0.029200
     16 H4           3.9700    -0.8920     1.1450 h1         1 N2Y       0.016200
     17 H5           3.3250    -1.5680     3.7900 h4         1 N2Y      -0.017900
     18 H6          -0.6720    -1.5770     2.2700 ha         1 N2Y       0.124000
     19 H7          -0.8990    -3.9200     3.0790 ha         1 N2Y       0.126000
     20 H8           2.2380     0.5150     3.1580 h1         1 N2Y       0.028700
     21 H9           0.5860     0.5200     2.5280 h1         1 N2Y       0.028700
     22 H2           1.7030    -0.0010    -2.0750 hn         1 N2Y       0.328800
     23 H10          3.8880    -0.9560    -1.0840 h1         1 N2Y       0.029200
     24 H11          3.9710     0.8910     1.1440 h1         1 N2Y       0.016200
     25 C9           1.5390     0.0060     2.5070 c3         1 N2Y       0.283100
@<TRIPOS>BOND
     1     1     3 2   
     2     1    14 1   
     3     2     3 1   
     4     2     6 1   
     5     2    25 1   
     6     3     4 1   
     7     4     5 1   
     8     4    22 1   
     9     5     6 1   
    10     5    15 1   
    11     5    23 1   
    12     6    16 1   
    13     6    24 1   
    14     7     8 1   
    15     7     9 ar  
    16     7    13 ar  
    17     9    10 ar  
    18    10    11 ar  
    19    10    17 1   
    20    11    12 ar  
    21    11    25 1   
    22    12    13 ar  
    23    12    18 1   
    24    13    19 1   
    25    20    25 1   
    26    21    25 1   
@<TRIPOS>SUBSTRUCTURE
     1 N2Y         1 TEMP              0 ****  ****    0 ROOT
