@<TRIPOS>MOLECULE
N32
   57    60     1     0     0
SMALL
bcc


@<TRIPOS>ATOM
      1 C1           1.5210     0.0000     0.0000 c3         1 N32       0.009500
      2 O19          1.5640     3.1200     5.0950 o          1 N32      -0.537100
      3 O20          3.3340    -0.7860     6.2100 o          1 N32      -0.591100
      4 N28          1.2950    -1.4620     6.7640 ns         1 N32      -0.021100
      5 C11          2.1380    -0.7310     6.0100 c          1 N32       0.540100
      6 C2           1.5980     0.1540     4.9170 c3         1 N32      -0.122400
      7 C3           2.7580     0.8680     4.2180 c3         1 N32      -0.006400
      8 C4           2.1990     1.8610     3.1800 c3         1 N32      -0.147000
      9 C5           1.3690     2.8960     3.9170 c          1 N32       0.614300
     10 C6           0.3310     3.6150     3.1770 ce         1 N32      -0.227200
     11 C7          -0.0730     3.2090     1.9820 c2         1 N32      -0.077200
     12 C8           0.5060     2.0190     1.2780 c3         1 N32      -0.014800
     13 C9           1.2900     1.1210     2.2170 c3         1 N32      -0.042700
     14 C10          1.9940     0.0000     1.4630 c3         1 N32      -0.021400
     15 C15          0.0000     0.0000     0.0000 c2         1 N32      -0.127400
     16 C17         -0.6900    -0.9520    -0.5780 c2         1 N32      -0.178000
     17 C28          1.3320     2.4890     0.0820 c3         1 N32      -0.023400
     18 C29          1.9960     1.3150    -0.6320 c3         1 N32      -0.016400
     19 O32          5.0270    -5.3010     9.7060 o          1 N32      -0.880800
     20 O33          5.1220    -4.6880     7.5740 o          1 N32      -0.880800
     21 C22          3.3840    -3.7370     8.8020 ca         1 N32      -0.161600
     22 C23          2.9000    -3.0080     7.7050 ca         1 N32       0.205100
     23 C24          1.7850    -2.1940     7.8560 ca         1 N32      -0.205400
     24 C25          1.1530    -2.1050     9.0940 ca         1 N32       0.113100
     25 C26          1.6350    -2.8270    10.1800 ca         1 N32      -0.237000
     26 C27          2.7370    -3.6420    10.0380 ca         1 N32      -0.015000
     27 H1           1.9130    -0.8550    -0.5370 hc         1 N32       0.034700
     28 H2           0.3220    -1.5020     6.5300 hn         1 N32       0.147500
     29 H3           1.0590    -0.4500     4.1960 hc         1 N32       0.029200
     30 H4           0.9280     0.8890     5.3460 hc         1 N32       0.029200
     31 H5           3.3460     1.4050     4.9520 hc         1 N32       0.047700
     32 H6           3.3830     0.1380     3.7190 hc         1 N32       0.047700
     33 H7          -0.1180     4.4980     3.6150 ha         1 N32       0.116000
     34 H8          -0.8450     3.7780     1.4790 ha         1 N32       0.095000
     35 H9           0.5490     0.6330     2.8370 hc         1 N32       0.039700
     36 H10          1.7540    -0.9520     1.9210 hc         1 N32       0.032200
     37 H11          3.0660     0.1580     1.4970 hc         1 N32       0.032200
     38 H12         -1.2910     0.8120     1.5200 hc         1 N32       0.023700
     39 H13         -1.2470     1.7550     0.0120 hc         1 N32       0.023700
     40 H14         -1.7730    -0.9240    -0.5580 ha         1 N32       0.087000
     41 H15         -0.1780    -1.7680    -1.0730 ha         1 N32       0.087000
     42 H16          4.1400     2.7780     3.2130 hc         1 N32       0.014033
     43 H17          3.7830     1.8830     1.7300 hc         1 N32       0.014033
     44 H18          3.0330     3.4600     2.0140 hc         1 N32       0.014033
     45 H19          2.0980     3.1720     0.4270 hc         1 N32       0.019700
     46 H20          0.6830     3.0060    -0.6160 hc         1 N32       0.019700
     47 H21          3.0720     1.3950    -0.5350 hc         1 N32       0.014200
     48 H22          1.7260     1.3300    -1.6810 hc         1 N32       0.014200
     49 H23         -0.5330    -1.7040     9.8560 ho         1 N32       0.389000
     50 H24          3.1840    -3.8430     6.0290 ho         1 N32       0.387000
     51 H26          1.1370    -2.7560    11.1390 ha         1 N32       0.094000
     52 H27          3.1080    -4.2020    10.8870 ha         1 N32       0.129000
     53 C14         -0.6630     1.1700     0.7130 c3         1 N32       0.033800
     54 C21          4.5650    -4.6020     8.6510 c          1 N32       0.978200
     55 C18          3.3740     2.5450     2.4840 c3         1 N32       0.003900
     56 O31          3.5190    -3.0980     6.5000 oh         1 N32      -0.448100
     57 O30          0.0640    -1.3090     9.2420 oh         1 N32      -0.500100
@<TRIPOS>BOND
     1     1    14 1
     2     1    15 1
     3     1    18 1
     4     1    27 1
     5     2     9 2
     6     3     5 2
     7     4     5 1
     8     4    23 1
     9     4    28 1
    10     5     6 1
    11     6     7 1
    12     6    29 1
    13     6    30 1
    14     7     8 1
    15     7    31 1
    16     7    32 1
    17     8     9 1
    18     8    13 1
    19     8    55 1
    20     9    10 1
    21    10    11 2
    22    10    33 1
    23    11    12 1
    24    11    34 1
    25    12    13 1
    26    12    17 1
    27    12    53 1
    28    13    14 1
    29    13    35 1
    30    14    36 1
    31    14    37 1
    32    15    16 2
    33    15    53 1
    34    16    40 1
    35    16    41 1
    36    17    18 1
    37    17    45 1
    38    17    46 1
    39    18    47 1
    40    18    48 1
    41    19    54 1
    42    20    54 1
    43    21    22 ar
    44    21    26 ar
    45    21    54 1
    46    22    23 ar
    47    22    56 1
    48    23    24 ar
    49    24    25 ar
    50    24    57 1
    51    25    26 ar
    52    25    51 1
    53    26    52 1
    54    38    53 1
    55    39    53 1
    56    42    55 1
    57    43    55 1
    58    44    55 1
    59    49    57 1
    60    50    56 1
@<TRIPOS>SUBSTRUCTURE
     1 N32         1 TEMP              0 ****  ****    0 ROOT
