@<TRIPOS>MOLECULE
N34
   63    66     1     0     0
SMALL
bcc


@<TRIPOS>ATOM
      1 C4           0.0000     0.0000     0.0000 ca         1 N34       0.200400
      2 C5           1.4330     0.0070     2.3880 ca         1 N34       0.015600
      3 C6           1.4000     0.0000     0.0000 ca         1 N34      -0.175500
      4 C7          -1.1810    -0.1800    -3.4900 ce         1 N34      -0.311800
      5 C8          -2.2280    -1.0440    -3.6080 c2         1 N34       0.130900
      6 C10         -1.0140     0.8500    -4.5320 c          1 N34       0.632700
      7 C13         -1.9220    -1.3910    -6.7100 c3         1 N34       0.128800
      8 C15         -2.7090     3.4280    -8.8230 c3         1 N34       0.003900
      9 C17         -3.3340     5.1640    -7.1380 c3         1 N34       0.003900
     10 C21         -2.3770     4.0110    -7.4480 c3         1 N34      -0.067000
     11 O31          0.3050    -0.7550     4.9830 o          1 N34      -0.585300
     12 S34          1.6960    -1.0000     4.8230 s6         1 N34       0.954900
     13 O30          2.6150    -0.7120     5.8670 o          1 N34      -0.585300
     14 C18          1.9760    -2.6700     4.1710 c3         1 N34       0.015700
     15 N26          2.1490     0.0070     3.5890 nu         1 N34      -0.408500
     16 C2           0.0430     0.0150     2.4040 ca         1 N34      -0.099000
     17 C3           2.1110     0.0000     1.1720 ca         1 N34       0.000000
     18 S33          2.2170     0.0130    -1.5710 sy         1 N34       1.029200
     19 O28          2.4030     1.3760    -1.9290 o          1 N34      -0.561800
     20 O29          3.2740    -0.9330    -1.4960 o          1 N34      -0.561800
     21 N23          1.0690    -0.6130    -2.6110 nu         1 N34      -0.464100
     22 C9          -0.2480    -0.2680    -2.3550 ce         1 N34       0.662500
     23 N22         -0.7010    -0.0180    -1.1650 nf         1 N34      -0.571100
     24 C1          -0.6720     0.0110     1.2280 ca         1 N34      -0.084000
     25 O27         -0.2590     1.7890    -4.3650 o          1 N34      -0.643500
     26 N24         -1.7170     0.7260    -5.6740 n          1 N34      -0.056200
     27 N25         -2.5420    -0.2990    -5.9270 n3         1 N34      -0.378600
     28 C11         -3.0160    -2.4920    -6.6560 c3         1 N34      -0.017400
     29 C14         -3.1850    -0.9300    -4.7680 c3         1 N34       0.152700
     30 C12         -3.5510    -2.3690    -5.2090 c3         1 N34      -0.035400
     31 O32         -2.4090    -2.0050    -2.6850 oh         1 N34      -0.491100
     32 C19         -2.5280     2.9220    -6.3830 c3         1 N34      -0.042400
     33 C16         -0.9380     4.5280    -7.4470 c3         1 N34       0.003900
     34 H13         -1.0090    -1.7340    -6.2370 h1         1 N34       0.022200
     35 H13A        -1.7430    -1.0780    -7.7310 h1         1 N34       0.022200
     36 H15         -1.8800     2.8230    -9.1690 hc         1 N34       0.006256
     37 H15A        -2.8850     4.2340    -9.5240 hc         1 N34       0.006256
     38 H15B        -3.5980     2.8130    -8.7500 hc         1 N34       0.006256
     39 H17         -3.2250     5.9360    -7.8910 hc         1 N34       0.006256
     40 H17A        -4.3530     4.7980    -7.1410 hc         1 N34       0.006256
     41 H17B        -3.1000     5.5750    -6.1630 hc         1 N34       0.006256
     42 H20         -1.8070     1.3570    -7.6670 h1         1 N34       0.043200
     43 H20A        -0.5520     2.1350    -6.6930 h1         1 N34       0.043200
     44 H18          1.1340    -2.9630     3.5550 h1         1 N34       0.065367
     45 H18A         2.0810    -3.3660     4.9940 h1         1 N34       0.065367
     46 H18B         2.8800    -2.6770     3.5740 h1         1 N34       0.065367
     47 HN26         2.9160     0.6370     3.7150 hn         1 N34       0.352800
     48 H2          -0.4820     0.0340     3.3520 ha         1 N34       0.171000
     49 H3           3.1890     0.1060     1.1520 ha         1 N34       0.116000
     50 HN23         1.3190    -1.2060    -3.3770 hn         1 N34       0.355800
     51 H1          -1.7550     0.0170     1.2520 ha         1 N34       0.119000
     52 H11         -3.8020    -2.2860    -7.3730 hc         1 N34       0.026200
     53 H11A        -2.5830    -3.4710    -6.8210 hc         1 N34       0.026200
     54 H14         -4.0730    -0.3820    -4.4790 h1         1 N34       0.057700
     55 H12         -4.6260    -2.5040    -5.1940 hc         1 N34       0.033700
     56 H12A        -3.0660    -3.0940    -4.5670 hc         1 N34       0.033700
     57 HO32        -3.1040    -1.7520    -2.1000 ho         1 N34       0.426000
     58 H19         -2.2930     3.3350    -5.4100 hc         1 N34       0.028700
     59 H19A        -3.5480     2.5560    -6.3840 hc         1 N34       0.028700
     60 H16         -0.2800     3.7670    -7.8500 hc         1 N34       0.006256
     61 H16A        -0.6390     4.7630    -6.4320 hc         1 N34       0.006256
     62 H16B        -0.8740     5.4200    -8.0580 hc         1 N34       0.006256
     63 C20         -1.5720     1.7690    -6.6930 c3         1 N34       0.045000
@<TRIPOS>BOND
     1     1     3 ar  
     2     1    23 1   
     3     1    24 ar  
     4     2    15 1   
     5     2    16 ar  
     6     2    17 ar  
     7     3    17 ar  
     8     3    18 1   
     9     4     5 2   
    10     4     6 1   
    11     4    22 1   
    12     5    29 1   
    13     5    31 1   
    14     6    25 2   
    15     6    26 1   
    16     7    27 1   
    17     7    28 1   
    18     7    34 1   
    19     7    35 1   
    20     8    10 1   
    21     8    36 1   
    22     8    37 1   
    23     8    38 1   
    24     9    10 1   
    25     9    39 1   
    26     9    40 1   
    27     9    41 1   
    28    10    32 1   
    29    10    33 1   
    30    11    12 2   
    31    12    13 2   
    32    12    14 1   
    33    12    15 1   
    34    14    44 1   
    35    14    45 1   
    36    14    46 1   
    37    15    47 1   
    38    16    24 ar  
    39    16    48 1   
    40    17    49 1   
    41    18    19 2   
    42    18    20 2   
    43    18    21 1   
    44    21    22 1   
    45    21    50 1   
    46    22    23 2   
    47    24    51 1   
    48    26    27 1   
    49    26    63 1   
    50    27    29 1   
    51    28    30 1   
    52    28    52 1   
    53    28    53 1   
    54    29    30 1   
    55    29    54 1   
    56    30    55 1   
    57    30    56 1   
    58    31    57 1   
    59    32    58 1   
    60    32    59 1   
    61    32    63 1   
    62    33    60 1   
    63    33    61 1   
    64    33    62 1   
    65    42    63 1   
    66    43    63 1   
@<TRIPOS>SUBSTRUCTURE
     1 N34         1 TEMP              0 ****  ****    0 ROOT
