@<TRIPOS>MOLECULE
molecule
   63    66     1     0     0
SMALL
bcc


@<TRIPOS>ATOM
      1 C4           0.0000     0.0000     0.0000 ca         1 N34       0.246400
      2 C5           1.4330     0.0070     2.3880 ca         1 N34       0.104600
      3 C6           1.4000     0.0000     0.0000 ca         1 N34      -0.326500
      4 C7          -1.1810    -0.1800    -3.4900 ce         1 N34      -0.278800
      5 C8          -2.2280    -1.0440    -3.6080 c2         1 N34       0.125900
      6 C10         -1.0140     0.8500    -4.5320 c          1 N34       0.697700
      7 C13         -1.9220    -1.3910    -6.7100 c3         1 N34       0.129800
      8 C15         -2.7090     3.4280    -8.8230 c3         1 N34      -0.084100
      9 C17         -3.3340     5.1640    -7.1380 c3         1 N34      -0.084100
     10 C21         -2.3770     4.0110    -7.4480 c3         1 N34      -0.070000
     11 O31          0.3050    -0.7550     4.9830 o          1 N34      -0.627300
     12 S34          1.6960    -1.0000     4.8230 s6         1 N34       1.325900
     13 O30          2.6150    -0.7120     5.8670 o          1 N34      -0.627300
     14 C18          1.9760    -2.6700     4.1710 c3         1 N34      -0.242300
     15 N26          2.1490     0.0070     3.5890 nu         1 N34      -0.768500
     16 C2           0.0430     0.0150     2.4040 ca         1 N34      -0.108000
     17 C3           2.1110     0.0000     1.1720 ca         1 N34      -0.027000
     18 S33          2.2170     0.0130    -1.5710 sy         1 N34       1.398200
     19 O28          2.4030     1.3760    -1.9290 o          1 N34      -0.605300
     20 O29          3.2740    -0.9330    -1.4960 o          1 N34      -0.605300
     21 N23          1.0690    -0.6130    -2.6110 nu         1 N34      -0.836100
     22 C9          -0.2480    -0.2680    -2.3550 ce         1 N34       0.786500
     23 N22         -0.7010    -0.0180    -1.1650 nf         1 N34      -0.672100
     24 C1          -0.6720     0.0110     1.2280 ca         1 N34      -0.102000
     25 O27         -0.2590     1.7890    -4.3650 o          1 N34      -0.602500
     26 N24         -1.7170     0.7260    -5.6740 n          1 N34      -0.342200
     27 N25         -2.5420    -0.2990    -5.9270 n3         1 N34      -0.456600
     28 C11         -3.0160    -2.4920    -6.6560 c3         1 N34      -0.081400
     29 C14         -3.1850    -0.9300    -4.7680 c3         1 N34       0.172700
     30 C12         -3.5510    -2.3690    -5.2090 c3         1 N34      -0.088400
     31 O32         -2.4090    -2.0050    -2.6850 oh         1 N34      -0.513100
     32 C19         -2.5280     2.9220    -6.3830 c3         1 N34      -0.090400
     33 C16         -0.9380     4.5280    -7.4470 c3         1 N34      -0.084100
     34 H13         -1.0090    -1.7340    -6.2370 h1         1 N34       0.053700
     35 H13A        -1.7430    -1.0780    -7.7310 h1         1 N34       0.053700
     36 H15         -1.8800     2.8230    -9.1690 hc         1 N34       0.035922
     37 H15A        -2.8850     4.2340    -9.5240 hc         1 N34       0.035922
     38 H15B        -3.5980     2.8130    -8.7500 hc         1 N34       0.035922
     39 H17         -3.2250     5.9360    -7.8910 hc         1 N34       0.035922
     40 H17A        -4.3530     4.7980    -7.1410 hc         1 N34       0.035922
     41 H17B        -3.1000     5.5750    -6.1630 hc         1 N34       0.035922
     42 H20         -1.8070     1.3570    -7.6670 h1         1 N34       0.066700
     43 H20A        -0.5520     2.1350    -6.6930 h1         1 N34       0.066700
     44 H18          1.1340    -2.9630     3.5550 h1         1 N34       0.101700
     45 H18A         2.0810    -3.3660     4.9940 h1         1 N34       0.101700
     46 H18B         2.8800    -2.6770     3.5740 h1         1 N34       0.101700
     47 HN26         2.9160     0.6370     3.7150 hn         1 N34       0.468800
     48 H2          -0.4820     0.0340     3.3520 ha         1 N34       0.190000
     49 H3           3.1890     0.1060     1.1520 ha         1 N34       0.145000
     50 HN23         1.3190    -1.2060    -3.3770 hn         1 N34       0.475800
     51 H1          -1.7550     0.0170     1.2520 ha         1 N34       0.154000
     52 H11         -3.8020    -2.2860    -7.3730 hc         1 N34       0.060200
     53 H11A        -2.5830    -3.4710    -6.8210 hc         1 N34       0.060200
     54 H14         -4.0730    -0.3820    -4.4790 h1         1 N34       0.099700
     55 H12         -4.6260    -2.5040    -5.1940 hc         1 N34       0.065700
     56 H12A        -3.0660    -3.0940    -4.5670 hc         1 N34       0.065700
     57 HO32        -3.1040    -1.7520    -2.1000 ho         1 N34       0.447000
     58 H19         -2.2930     3.3350    -5.4100 hc         1 N34       0.055700
     59 H19A        -3.5480     2.5560    -6.3840 hc         1 N34       0.055700
     60 H16         -0.2800     3.7670    -7.8500 hc         1 N34       0.035922
     61 H16A        -0.6390     4.7630    -6.4320 hc         1 N34       0.035922
     62 H16B        -0.8740     5.4200    -8.0580 hc         1 N34       0.035922
     63 C20         -1.5720     1.7690    -6.6930 c3         1 N34       0.126000
@<TRIPOS>BOND
     1     1     3 ar
     2     1    23 1
     3     1    24 ar
     4     2    15 1
     5     2    16 ar
     6     2    17 ar
     7     3    17 ar
     8     3    18 1
     9     4     5 2
    10     4     6 1
    11     4    22 1
    12     5    29 1
    13     5    31 1
    14     6    25 2
    15     6    26 1
    16     7    27 1
    17     7    28 1
    18     8    10 1
    19     9    10 1
    20    63    26 1
    21    63    32 1
    22    10    32 1
    23    10    33 1
    24    11    12 2
    25    12    13 2
    26    12    14 1
    27    12    15 1
    28    16    24 ar
    29    18    19 2
    30    18    20 2
    31    18    21 1
    32    21    22 1
    33    22    23 2
    34    26    27 1
    35    27    29 1
    36    28    30 1
    37    29    30 1
    38     7    34 1
    39     7    35 1
    40     8    36 1
    41     8    37 1
    42     8    38 1
    43     9    39 1
    44     9    40 1
    45     9    41 1
    46    63    42 1
    47    63    43 1
    48    14    44 1
    49    14    45 1
    50    14    46 1
    51    15    47 1
    52    16    48 1
    53    17    49 1
    54    21    50 1
    55    24    51 1
    56    28    52 1
    57    28    53 1
    58    29    54 1
    59    30    55 1
    60    30    56 1
    61    31    57 1
    62    32    58 1
    63    32    59 1
    64    33    60 1
    65    33    61 1
    66    33    62 1
@<TRIPOS>SUBSTRUCTURE
     1 N34         1 TEMP              0 ****  ****    0 ROOT
