@<TRIPOS>MOLECULE
molecule
   63    66     1     0     0
SMALL
bcc


@<TRIPOS>ATOM
      1 C4           0.0000     0.0000     0.0000 ca         1 N35       0.234400
      2 C5           1.4330     0.0080     2.3880 ca         1 N35       0.109600
      3 C6           1.4010     0.0000     0.0000 ca         1 N35      -0.324500
      4 C7          -1.1820    -0.1820    -3.4880 cc         1 N35      -0.273800
      5 C8          -2.2510    -1.0710    -3.6000 cd         1 N35       0.081500
      6 C10         -3.1280    -0.9600    -4.7030 cd         1 N35       0.623500
      7 C13         -6.3010    -3.1070    -5.4380 c3         1 N35      -0.098900
      8 C15         -5.3370    -1.9430    -5.7480 c3         1 N35       0.247800
      9 C17          0.1770     1.7890    -9.9250 c3         1 N35      -0.089600
     10 C21         -0.6140     2.3840    -8.7590 c3         1 N35      -0.075700
     11 O32          0.3050    -0.7490     4.9840 o          1 N35      -0.624800
     12 S35          1.6960    -0.9960     4.8240 s6         1 N35       1.323900
     13 O31          2.6160    -0.7060     5.8680 o          1 N35      -0.624800
     14 C18          2.0080    -2.6460     4.1390 c3         1 N35      -0.242300
     15 N27          2.1500     0.0100     3.5900 nu         1 N35      -0.770500
     16 C2           0.0430     0.0180     2.4050 ca         1 N35      -0.112000
     17 C3           2.1120     0.0000     1.1720 ca         1 N35      -0.032000
     18 S34          2.2170     0.0110    -1.5700 sy         1 N35       1.399200
     19 O29          2.4040     1.3730    -1.9310 o          1 N35      -0.603300
     20 O30          3.2740    -0.9360    -1.4950 o          1 N35      -0.603300
     21 N24          1.0690    -0.6160    -2.6090 nu         1 N35      -0.838100
     22 C9          -0.2490    -0.2700    -2.3530 ce         1 N35       0.759500
     23 N22         -0.7010    -0.0180    -1.1640 nf         1 N35      -0.642100
     24 C1          -0.6720     0.0130     1.2280 ca         1 N35      -0.093000
     25 C11         -1.0070     0.8040    -4.4930 c          1 N35       0.672700
     26 O28         -0.0810     1.5950    -4.4230 o          1 N35      -0.623500
     27 N26         -1.8710     0.8600    -5.5240 n          1 N35      -0.184800
     28 C19         -0.7980     1.3230    -7.6730 c3         1 N35      -0.099400
     29 C16          0.1500     3.5770    -8.1810 c3         1 N35      -0.089600
     30 N23         -2.9420    -0.0360    -5.6090 nc         1 N35      -0.473300
     31 O33         -2.4450    -2.0290    -2.6630 oh         1 N35      -0.495100
     32 N25         -4.3120    -1.9330    -4.6940 nh         1 N35      -0.830600
     33 C14         -4.6080    -3.0120    -3.7360 c3         1 N35       0.247800
     34 C12         -5.4440    -4.0390    -4.5410 c3         1 N35      -0.098900
     35 H13         -7.1690    -2.7500    -4.8970 hc         1 N35       0.056200
     36 H13A        -6.5910    -3.6160    -6.3490 hc         1 N35       0.056200
     37 H15         -5.8790    -1.0050    -5.7430 h1         1 N35       0.044450
     38 H15A        -4.8700    -2.1000    -6.7130 h1         1 N35       0.044450
     39 H17          0.2750     2.5290   -10.7100 hc         1 N35       0.037033
     40 H17A         1.1610     1.4950    -9.5810 hc         1 N35       0.037033
     41 H17B        -0.3450     0.9210   -10.3100 hc         1 N35       0.037033
     42 H20         -1.2330     2.7570    -6.1320 h1         1 N35       0.078200
     43 H20A        -2.6600     2.1420    -6.9770 h1         1 N35       0.078200
     44 H21         -1.5850     2.7140    -9.1110 hc         1 N35       0.048700
     45 H18          1.1930    -2.9250     3.4830 h1         1 N35       0.101367
     46 H18A         2.0830    -3.3640     4.9470 h1         1 N35       0.101367
     47 H18B         2.9350    -2.6350     3.5790 h1         1 N35       0.101367
     48 HN27         2.9090     0.6490     3.7190 hn         1 N35       0.470800
     49 H2          -0.4820     0.0390     3.3520 ha         1 N35       0.191000
     50 H3           3.1880    -0.1260     1.1530 ha         1 N35       0.149000
     51 HN24         1.3190    -1.2080    -3.3760 hn         1 N35       0.472800
     52 H1          -1.7550     0.0210     1.2520 ha         1 N35       0.160000
     53 H19         -1.2600     0.4420    -8.1040 hc         1 N35       0.053700
     54 H19A         0.1670     1.0580    -7.2590 hc         1 N35       0.053700
     55 H16          0.9690     3.2180    -7.5680 hc         1 N35       0.037033
     56 H16A         0.5430     4.1810    -8.9900 hc         1 N35       0.037033
     57 H16B        -0.5190     4.1760    -7.5750 hc         1 N35       0.037033
     58 HO33        -1.7930    -2.7030    -2.7630 ho         1 N35       0.433000
     59 H14         -3.6920    -3.4970    -3.4220 h1         1 N35       0.044450
     60 H14A        -5.1470    -2.6200    -2.8830 h1         1 N35       0.044450
     61 H12         -6.0730    -4.6250    -3.8820 hc         1 N35       0.056200
     62 H12A        -4.8030    -4.6710    -5.1430 hc         1 N35       0.056200
     63 C20         -1.6950     1.8770    -6.5630 c3         1 N35       0.128000
@<TRIPOS>BOND
     1     1     3 ar
     2     1    23 1
     3     1    24 ar
     4     2    15 1
     5     2    16 ar
     6     2    17 ar
     7     3    17 ar
     8     3    18 1
     9     4     5 2
    10     4    22 1
    11     4    25 1
    12     5     6 1
    13     5    31 1
    14     6    30 2
    15     6    32 1
    16     7     8 1
    17     7    34 1
    18     8    32 1
    19     9    10 1
    20    63    27 1
    21    63    28 1
    22    10    28 1
    23    10    29 1
    24    11    12 2
    25    12    13 2
    26    12    14 1
    27    12    15 1
    28    16    24 ar
    29    18    19 2
    30    18    20 2
    31    18    21 1
    32    21    22 1
    33    22    23 2
    34    25    26 2
    35    25    27 1
    36    27    30 1
    37    32    33 1
    38    33    34 1
    39     7    35 1
    40     7    36 1
    41     8    37 1
    42     8    38 1
    43     9    39 1
    44     9    40 1
    45     9    41 1
    46    63    42 1
    47    63    43 1
    48    10    44 1
    49    14    45 1
    50    14    46 1
    51    14    47 1
    52    15    48 1
    53    16    49 1
    54    17    50 1
    55    21    51 1
    56    24    52 1
    57    28    53 1
    58    28    54 1
    59    29    55 1
    60    29    56 1
    61    29    57 1
    62    31    58 1
    63    33    59 1
    64    33    60 1
    65    34    61 1
    66    34    62 1
@<TRIPOS>SUBSTRUCTURE
     1 N35         1 TEMP              0 ****  ****    0 ROOT
