@<TRIPOS>MOLECULE
N38
   78    80     1     0     0
SMALL
bcc


@<TRIPOS>ATOM
      1 C01          0.0000     0.0000     0.0000 c3         1 N38       0.245700
      2 C03          2.0470     0.0000     1.2120 ca         1 N38       0.112100
      3 C04          3.4320     0.0010     1.2850 ca         1 N38      -0.133500
      4 C05          4.0580     0.0070     2.5160 ca         1 N38      -0.134500
      5 C06          3.3040     0.0130     3.6780 ca         1 N38       0.114100
      6 C08          3.0800     0.0230     6.0460 c3         1 N38       0.205400
      7 C09          3.9470     0.0290     7.3070 c3         1 N38      -0.003400
      8 C10          3.0480     0.0360     8.5450 c3         1 N38      -0.013600
      9 C13          2.0770    -1.0840    11.4720 c3         1 N38       0.117500
     10 C14          1.8860    -1.3470    12.9660 c3         1 N38      -0.030400
     11 C15          3.2220    -1.7640    13.5860 c3         1 N38      -0.052700
     12 C16          3.6610    -3.1060    12.9960 c3         1 N38      -0.028400
     13 C17          4.9960    -3.5220    13.6160 c3         1 N38      -0.019900
     14 C18          4.8340    -3.6600    15.1310 c3         1 N38      -0.026400
     15 C19          4.3950    -2.3180    15.7210 c3         1 N38      -0.019900
     16 C20          3.0600    -1.9020    15.1020 c3         1 N38      -0.028400
     17 C21          0.7460    -0.7630    10.8440 c          1 N38       0.542100
     18 C23         -1.5500    -1.3520    10.2790 c3         1 N38       0.001700
     19 C24         -2.2270    -2.6480     9.8270 c3         1 N38      -0.021400
     20 C25         -1.3850    -3.3070     8.7330 c3         1 N38      -0.141700
     21 C26         -2.0260    -4.6000     8.2790 c          1 N38       0.622500
     22 C28         -1.3840    -3.4920     6.3410 c3         1 N38       0.043000
     23 C29         -1.3650    -2.4280     7.4610 c3         1 N38      -0.035400
     24 C31         -2.4390    -0.6430    11.3020 c3         1 N38       0.207400
     25 C36          1.9180     0.0130     3.6070 ca         1 N38      -0.134500
     26 C37          1.2910     0.0060     2.3760 ca         1 N38      -0.133500
     27 N12          2.9890     0.0480    11.2880 n7         1 N38      -0.554100
     28 N22         -0.2550    -1.6630    10.8900 ns         1 N38      -0.172900
     29 N27         -2.0170    -4.6740     6.9370 ns         1 N38      -0.201900
     30 O02          1.4290     0.0000     0.0000 os         1 N38      -0.307900
     31 O07          3.9210     0.0180     4.8900 os         1 N38      -0.304900
     32 O30         -2.4810    -5.4470     9.0180 o          1 N38      -0.663500
     33 O33          0.5750     0.3060    10.2960 o          1 N38      -0.667100
     34 O34          4.7630    -1.1950    10.1780 o          1 N38      -0.583800
     35 O35          4.7640     1.2790    10.1660 o          1 N38      -0.583800
     36 S11          4.0770     0.0420    10.0400 s6         1 N38       0.956900
     37 H1          -0.3610     0.8810     0.5170 h1         1 N38      -0.003967
     38 H2          -0.3610     0.0070    -1.0210 h1         1 N38      -0.003967
     39 H3          -0.3610    -0.8880     0.5050 h1         1 N38      -0.003967
     40 H4           4.0220    -0.0030     0.3770 ha         1 N38       0.117000
     41 H5           5.1400     0.0080     2.5720 ha         1 N38       0.116500
     42 H6           2.4550     0.9080     6.0340 h1         1 N38       0.000200
     43 H7           2.4550    -0.8610     6.0420 h1         1 N38       0.000200
     44 H8           4.5720    -0.8550     7.3190 hc         1 N38       0.037200
     45 H9           4.5730     0.9140     7.3110 hc         1 N38       0.037200
     46 H10          2.4220    -0.8490     8.5410 h1         1 N38       0.074700
     47 H11          2.4230     0.9210     8.5320 h1         1 N38       0.074700
     48 H12          2.4960    -1.9650    11.0010 h1         1 N38       0.062700
     49 H13          1.5300    -0.4450    13.4490 hc         1 N38       0.025200
     50 H14          1.1610    -2.1400    13.1040 hc         1 N38       0.025200
     51 H15          3.9740    -1.0140    13.3720 hc         1 N38       0.043700
     52 H16          3.7770    -3.0070    11.9240 hc         1 N38       0.017700
     53 H17          2.9120    -3.8570    13.2160 hc         1 N38       0.017700
     54 H18          5.3050    -4.4740    13.1990 hc         1 N38       0.015450
     55 H19          5.7440    -2.7680    13.4010 hc         1 N38       0.015450
     56 H20          5.7810    -3.9530    15.5690 hc         1 N38       0.012200
     57 H21          4.0830    -4.4110    15.3460 hc         1 N38       0.012200
     58 H22          4.2790    -2.4180    16.7940 hc         1 N38       0.015450
     59 H23          5.1440    -1.5670    15.5020 hc         1 N38       0.015450
     60 H24          2.3120    -2.6560    15.3170 hc         1 N38       0.017700
     61 H25          2.7510    -0.9500    15.5190 hc         1 N38       0.017700
     62 H26         -1.4000    -0.7060     9.4220 h1         1 N38       0.061700
     63 H27         -2.3140    -3.3220    10.6710 hc         1 N38       0.044700
     64 H28         -3.2130    -2.4240     9.4390 hc         1 N38       0.044700
     65 H29         -0.3750    -3.4890     9.0810 hc         1 N38       0.049700
     66 H30         -1.9690    -3.1390     5.5000 h1         1 N38       0.015700
     67 H31         -0.3730    -3.7260     6.0310 h1         1 N38       0.015700
     68 H32         -0.4580    -1.8370     7.4160 hc         1 N38       0.030700
     69 H33         -2.2470    -1.8010     7.4120 hc         1 N38       0.030700
     70 H34         -1.9230     0.2280    11.6870 h1         1 N38       0.000200
     71 H35         -3.3620    -0.3350    10.8260 h1         1 N38       0.000200
     72 H36          1.3290     0.0180     4.5150 ha         1 N38       0.116500
     73 H37          0.2090     0.0060     2.3190 ha         1 N38       0.117000
     74 H38          2.9510     0.8280    11.9150 hn         1 N38       0.360800
     75 H39         -0.1150    -2.5450    11.3430 hn         1 N38       0.189500
     76 H40         -2.2850    -5.4960     6.4320 hn         1 N38       0.195500
     77 H41         -3.4470    -1.1900    12.8880 ho         1 N38       0.397000
     78 O32         -2.7340    -1.5370    12.3780 oh         1 N38      -0.598800
@<TRIPOS>BOND
     1     1    30 1   
     2     1    37 1   
     3     1    38 1   
     4     1    39 1   
     5     2     3 ar  
     6     2    26 ar  
     7     2    30 1   
     8     3     4 ar  
     9     3    40 1   
    10     4     5 ar  
    11     4    41 1   
    12     5    25 ar  
    13     5    31 1   
    14     6     7 1   
    15     6    31 1   
    16     6    42 1   
    17     6    43 1   
    18     7     8 1   
    19     7    44 1   
    20     7    45 1   
    21     8    36 1   
    22     8    46 1   
    23     8    47 1   
    24     9    10 1   
    25     9    17 1   
    26     9    27 1   
    27     9    48 1   
    28    10    11 1   
    29    10    49 1   
    30    10    50 1   
    31    11    12 1   
    32    11    16 1   
    33    11    51 1   
    34    12    13 1   
    35    12    52 1   
    36    12    53 1   
    37    13    14 1   
    38    13    54 1   
    39    13    55 1   
    40    14    15 1   
    41    14    56 1   
    42    14    57 1   
    43    15    16 1   
    44    15    58 1   
    45    15    59 1   
    46    16    60 1   
    47    16    61 1   
    48    17    28 1   
    49    17    33 2   
    50    18    19 1   
    51    18    24 1   
    52    18    28 1   
    53    18    62 1   
    54    19    20 1   
    55    19    63 1   
    56    19    64 1   
    57    20    21 1   
    58    20    23 1   
    59    20    65 1   
    60    21    29 1   
    61    21    32 2   
    62    22    23 1   
    63    22    29 1   
    64    22    66 1   
    65    22    67 1   
    66    23    68 1   
    67    23    69 1   
    68    24    70 1   
    69    24    71 1   
    70    24    78 1   
    71    25    26 ar  
    72    25    72 1   
    73    26    73 1   
    74    27    36 1   
    75    27    74 1   
    76    28    75 1   
    77    29    76 1   
    78    34    36 2   
    79    35    36 2   
    80    77    78 1   
@<TRIPOS>SUBSTRUCTURE
     1 N38         1 TEMP              0 ****  ****    0 ROOT
