@<TRIPOS>MOLECULE
N3A
   58    61     1     0     0
SMALL
bcc


@<TRIPOS>ATOM
      1 C1           0.0000     0.0000     0.0000 c3         1 N3A       0.014500
      2 O19          4.8360     0.8730     3.3990 o          1 N3A      -0.539100
      3 O20          6.5250    -0.4780    -0.4410 o          1 N3A      -0.577100
      4 N28          6.5280    -2.5320     0.3980 ns         1 N3A      -0.016100
      5 C11          6.0030    -1.2950     0.2880 c          1 N3A       0.531100
      6 C2           4.7680    -0.9290     1.0690 c3         1 N3A      -0.121400
      7 C3           4.3840     0.5210     0.7660 c3         1 N3A      -0.006400
      8 C4           3.2060     0.9420     1.6690 c3         1 N3A      -0.148000
      9 C5           3.6550     0.8000     3.1130 c          1 N3A       0.614300
     10 C6           2.6460     0.5750     4.1480 ce         1 N3A      -0.236200
     11 C7           1.3970     0.2600     3.8390 c2         1 N3A      -0.067200
     12 C8           0.8990     0.1510     2.4290 c3         1 N3A      -0.021800
     13 C9           2.0400     0.0000     1.4370 c3         1 N3A      -0.043700
     14 C10          1.5370     0.0000     0.0000 c3         1 N3A      -0.023400
     15 C14          0.0290    -1.1260     2.3150 c3         1 N3A       0.035800
     16 C15         -0.4700    -1.1480     0.8780 c2         1 N3A      -0.122400
     17 C17         -1.2570    -2.0960     0.4270 c2         1 N3A      -0.178000
     18 C18          2.8710     2.4010     1.3730 c3         1 N3A       0.003900
     19 C28         -0.0020     1.3420     2.1090 c3         1 N3A       0.198100
     20 C29         -0.4650     1.3090     0.6540 c3         1 N3A      -0.053400
     21 O32         10.0880    -2.6310    -4.5660 o          1 N3A      -0.883300
     22 O33          8.1720    -1.5390    -4.2940 o          1 N3A      -0.883300
     23 C22          8.8750    -2.7820    -2.4520 ca         1 N3A      -0.174600
     24 C23          7.7630    -2.4140    -1.6780 ca         1 N3A       0.205100
     25 C24          7.6360    -2.8960    -0.3820 ca         1 N3A      -0.200400
     26 C25          8.6110    -3.7410     0.1430 ca         1 N3A       0.111100
     27 C26          9.7110    -4.1030    -0.6250 ca         1 N3A      -0.244000
     28 C27          9.8440    -3.6360    -1.9120 ca         1 N3A      -0.014000
     29 O34         -1.1620     1.2830     2.9540 oh         1 N3A      -0.592800
     30 H1          -0.3900    -0.0930    -1.0060 hc         1 N3A       0.034700
     31 HN28         6.1090    -3.2000     1.0130 hn         1 N3A       0.150500
     32 H2           4.9660    -1.0360     2.1280 hc         1 N3A       0.028700
     33 H2A          3.9540    -1.5850     0.7850 hc         1 N3A       0.028700
     34 H3           4.0900     0.6080    -0.2740 hc         1 N3A       0.047700
     35 H3A          5.2330     1.1670     0.9560 hc         1 N3A       0.047700
     36 H6           2.9270     0.6680     5.1900 ha         1 N3A       0.118000
     37 H7           0.7000     0.0700     4.6460 ha         1 N3A       0.104000
     38 H9           2.4360    -0.9940     1.6040 hc         1 N3A       0.042700
     39 H10          1.8990     0.8850    -0.5100 hc         1 N3A       0.032700
     40 H10A         1.8990    -0.8850    -0.5100 hc         1 N3A       0.032700
     41 H14         -0.8070    -1.0730     3.0010 hc         1 N3A       0.032700
     42 H14A         0.6270    -2.0070     2.5170 hc         1 N3A       0.032700
     43 H17         -1.5920    -2.0780    -0.6030 ha         1 N3A       0.086500
     44 H17A        -1.5600    -2.9040     1.0810 ha         1 N3A       0.086500
     45 H18          2.1940     2.4530     0.5290 hc         1 N3A       0.013700
     46 H18A         2.4000     2.8470     2.2410 hc         1 N3A       0.013700
     47 H18B         3.7810     2.9410     1.1390 hc         1 N3A       0.013700
     48 H28          0.5350     2.2640     2.2970 h1         1 N3A       0.013700
     49 H29         -0.0400     2.1500     0.1200 hc         1 N3A       0.024700
     50 H29A        -1.5460     1.3670     0.6170 hc         1 N3A       0.024700
     51 HO30         8.9840    -5.0070     1.5010 ho         1 N3A       0.392000
     52 HO31         6.3130    -2.0550    -2.8420 ho         1 N3A       0.394000
     53 H26         10.4630    -4.7630    -0.2110 ha         1 N3A       0.093000
     54 H27         10.7040    -3.9220    -2.5050 ha         1 N3A       0.129000
     55 HO34        -1.4640     2.1580     3.1340 ho         1 N3A       0.385000
     56 C21          9.0180    -2.2760    -3.8260 c          1 N3A       0.981200
     57 O31          6.8160    -1.5900    -2.1950 oh         1 N3A      -0.449100
     58 O30          8.4860    -4.2110     1.4110 oh         1 N3A      -0.502100
@<TRIPOS>BOND
     1     1    14 1   
     2     1    16 1   
     3     1    20 1   
     4     1    30 1   
     5     2     9 2   
     6     3     5 2   
     7     4     5 1   
     8     4    25 1   
     9     4    31 1   
    10     5     6 1   
    11     6     7 1   
    12     6    32 1   
    13     6    33 1   
    14     7     8 1   
    15     7    34 1   
    16     7    35 1   
    17     8     9 1   
    18     8    13 1   
    19     8    18 1   
    20     9    10 1   
    21    10    11 2   
    22    10    36 1   
    23    11    12 1   
    24    11    37 1   
    25    12    13 1   
    26    12    15 1   
    27    12    19 1   
    28    13    14 1   
    29    13    38 1   
    30    14    39 1   
    31    14    40 1   
    32    15    16 1   
    33    15    41 1   
    34    15    42 1   
    35    16    17 2   
    36    17    43 1   
    37    17    44 1   
    38    18    45 1   
    39    18    46 1   
    40    18    47 1   
    41    19    20 1   
    42    19    29 1   
    43    19    48 1   
    44    20    49 1   
    45    20    50 1   
    46    21    56 1   
    47    22    56 1   
    48    23    24 ar  
    49    23    28 ar  
    50    23    56 1   
    51    24    25 ar  
    52    24    57 1   
    53    25    26 ar  
    54    26    27 ar  
    55    26    58 1   
    56    27    28 ar  
    57    27    53 1   
    58    28    54 1   
    59    29    55 1   
    60    51    58 1   
    61    52    57 1   
@<TRIPOS>SUBSTRUCTURE
     1 N3A         1 TEMP              0 ****  ****    0 ROOT
