@<TRIPOS>MOLECULE
molecule
   60    63     1     0     0
SMALL
bcc


@<TRIPOS>ATOM
      1 C1           0.0000     0.0000     0.0000 ca         1 N3B      -0.167000
      2 C2           1.3870     0.0000     0.0000 ca         1 N3B       0.141900
      3 C3           2.0830     0.0000     1.1980 ca         1 N3B      -0.167000
      4 C4           1.4000     0.0010     2.3960 ca         1 N3B      -0.087000
      5 C5           0.0050     0.0000     2.4010 cp         1 N3B      -0.069000
      6 C6          -0.6920    -0.0050     1.1930 ca         1 N3B      -0.087000
      7 F7           2.0600    -0.0010    -1.1710 f          1 N3B      -0.136900
      8 C8          -0.7340     0.0010     3.6850 cp         1 N3B       0.000000
      9 C9          -1.8870     0.7740     3.8260 ca         1 N3B      -0.129500
     10 C10         -2.5750     0.7750     5.0180 ca         1 N3B      -0.075500
     11 C11         -2.1170     0.0010     6.0880 ca         1 N3B      -0.162600
     12 C12         -0.9590    -0.7670     5.9480 ca         1 N3B      -0.075500
     13 C13         -0.2760    -0.7710     4.7540 ca         1 N3B      -0.129500
     14 C14         -2.8550     0.0010     7.3690 c          1 N3B       0.702700
     15 O15         -3.8600     0.6740     7.4910 o          1 N3B      -0.576100
     16 N16         -2.4130    -0.7450     8.4010 ns         1 N3B      -0.654300
     17 S17         -3.2390    -0.7450     9.8360 sy         1 N3B       1.423900
     18 C18         -4.8200    -1.4640     9.5330 ca         1 N3B      -0.378500
     19 C19         -4.9950    -2.8270     9.6700 ca         1 N3B       0.072000
     20 C20         -6.2320    -3.3940     9.4340 ca         1 N3B      -0.258200
     21 C21         -7.3000    -2.5910     9.0540 ca         1 N3B       0.297600
     22 C22         -7.1230    -1.2200     8.9230 ca         1 N3B      -0.240000
     23 C23         -5.8820    -0.6600     9.1600 ca         1 N3B       0.068000
     24 O24         -3.4870     0.6210    10.1390 o          1 N3B      -0.612800
     25 O25         -2.5520    -1.6630    10.6760 o          1 N3B      -0.612800
     26 N26         -6.4190    -4.8540     9.5800 no         1 N3B       0.300200
     27 O27         -5.5370    -5.6190     9.2310 o          1 N3B      -0.210000
     28 O28         -7.4560    -5.2930    10.0450 o          1 N3B      -0.210000
     29 N29         -8.5530    -3.1610     8.8150 nu         1 N3B      -0.796600
     30 C30         -9.7100    -2.3010     8.5520 c3         1 N3B       0.241800
     31 C31        -10.9490    -3.1700     8.3250 c3         1 N3B      -0.030300
     32 S32        -12.3820    -2.1040     8.0000 ss         1 N3B      -0.237000
     33 C33        -13.6300    -3.3290     7.7810 ca         1 N3B       0.035900
     34 C34        -14.9370    -2.9500     7.5020 ca         1 N3B      -0.129500
     35 C35        -15.9120    -3.9120     7.3320 ca         1 N3B      -0.110500
     36 C36        -15.5890    -5.2530     7.4390 ca         1 N3B      -0.131000
     37 C37        -14.2900    -5.6340     7.7170 ca         1 N3B      -0.110500
     38 C38        -13.3080    -4.6780     7.8820 ca         1 N3B      -0.129500
     39 HA1         -0.5410    -0.0020    -0.9390 ha         1 N3B       0.149000
     40 HA2          3.1660     0.0000     1.1930 ha         1 N3B       0.149000
     41 HB1          1.9450     0.0030     3.3320 ha         1 N3B       0.142000
     42 HB2         -1.7750    -0.0050     1.1920 ha         1 N3B       0.142000
     43 HC1         -2.2410     1.3730     2.9960 ha         1 N3B       0.143000
     44 HD1         -3.4720     1.3730     5.1260 ha         1 N3B       0.143500
     45 HD2         -0.6030    -1.3670     6.7780 ha         1 N3B       0.143500
     46 HC2          0.6220    -1.3670     4.6450 ha         1 N3B       0.143000
     47 H47         -1.5670    -1.2730     8.3100 hn         1 N3B       0.350500
     48 HG          -4.1610    -3.4520     9.9660 ha         1 N3B       0.174000
     49 HF          -7.9540    -0.5910     8.6290 ha         1 N3B       0.156000
     50 HE          -5.7420     0.4090     9.0580 ha         1 N3B       0.181000
     51 H51         -8.6510    -4.1560     8.7790 hn         1 N3B       0.467800
     52 HH1         -9.8770    -1.6490     9.4020 h1         1 N3B       0.059200
     53 HH2         -9.5220    -1.7020     7.6700 h1         1 N3B       0.059200
     54 HI1        -11.1380    -3.7690     9.2070 h1         1 N3B       0.076700
     55 HI2        -10.7830    -3.8200     7.4750 h1         1 N3B       0.076700
     56 HJ1        -15.1910    -1.9000     7.4180 ha         1 N3B       0.136000
     57 HK1        -16.9310    -3.6170     7.1140 ha         1 N3B       0.134500
     58 HL         -16.3570    -6.0060     7.3070 ha         1 N3B       0.133000
     59 HK2        -14.0400    -6.6850     7.7980 ha         1 N3B       0.134500
     60 HJ2        -12.2900    -4.9780     8.1000 ha         1 N3B       0.136000
@<TRIPOS>BOND
     1     1     2 ar
     2     1     6 ar
     3     1    39 1
     4     2     3 ar
     5     2     7 1
     6     3     4 ar
     7     3    40 1
     8     4     5 ar
     9     4    41 1
    10     5     6 ar
    11     5     8 1
    12     6    42 1
    13     8     9 ar
    14     8    13 ar
    15     9    10 ar
    16     9    43 1
    17    10    11 ar
    18    10    44 1
    19    11    12 ar
    20    11    14 1
    21    12    13 ar
    22    12    45 1
    23    13    46 1
    24    14    15 2
    25    14    16 1
    26    16    17 1
    27    16    47 1
    28    17    18 1
    29    17    24 2
    30    17    25 2
    31    18    19 ar
    32    18    23 ar
    33    19    20 ar
    34    19    48 1
    35    20    21 ar
    36    20    26 1
    37    21    22 ar
    38    21    29 1
    39    22    23 ar
    40    22    49 1
    41    23    50 1
    42    26    27 1
    43    26    28 1
    44    29    30 1
    45    29    51 1
    46    30    31 1
    47    30    52 1
    48    30    53 1
    49    31    32 1
    50    31    54 1
    51    31    55 1
    52    32    33 1
    53    33    34 ar
    54    33    38 ar
    55    34    35 ar
    56    34    56 1
    57    35    36 ar
    58    35    57 1
    59    36    37 ar
    60    36    58 1
    61    37    38 ar
    62    37    59 1
    63    38    60 1
@<TRIPOS>SUBSTRUCTURE
     1 N3B         1 TEMP              0 ****  ****    0 ROOT
