@<TRIPOS>MOLECULE
molecule
   19    18     1     0     0
SMALL
bcc


@<TRIPOS>ATOM
      1 N1           0.0000     0.0000     0.0000 nz         1 N3D      -0.810600
      2 C2           1.4690     0.0000     0.0000 c3         1 N3D       0.090800
      3 C3           1.9790     0.0000     1.4420 c3         1 N3D      -0.115400
      4 C4           3.5090     0.0000     1.4420 c3         1 N3D       0.166800
      5 N5           4.0000     0.0000     2.8260 n7         1 N3D      -0.814200
      6 C6           5.4680     0.0010     2.8650 c3         1 N3D       0.147100
      7 HN1         -0.3340    -0.8400     0.4310 hn         1 N3D       0.458133
      8 HN1A        -0.3340     0.0470    -0.9420 hn         1 N3D       0.458133
      9 H2           1.8300     0.8850    -0.5110 hx         1 N3D       0.113200
     10 H2A          1.8300    -0.8840    -0.5110 hx         1 N3D       0.113200
     11 H3           1.6180    -0.8850     1.9530 hc         1 N3D       0.072700
     12 H3A          1.6180     0.8850     1.9530 hc         1 N3D       0.072700
     13 H4           3.8700     0.8850     0.9310 h1         1 N3D       0.046200
     14 H4A          3.8700    -0.8840     0.9310 h1         1 N3D       0.046200
     15 HN5          3.6530    -0.8090     3.3030 hn         1 N3D       0.358800
     16 H6           5.8420     0.8840     2.3620 h1         1 N3D       0.046700
     17 H6A          5.8430    -0.8850     2.3670 h1         1 N3D       0.046700
     18 H6B          5.8020     0.0040     3.8960 h1         1 N3D       0.046700
     19 H13         -0.3340     0.7930     0.5120 hn         1 N3D       0.458133
@<TRIPOS>BOND
     1     1     2 1
     2     2     3 1
     3     3     4 1
     4     4     5 1
     5     5     6 1
     6     1     7 1
     7     1     8 1
     8     2     9 1
     9     2    10 1
    10     3    11 1
    11     3    12 1
    12     4    13 1
    13     4    14 1
    14     5    15 1
    15     6    16 1
    16     6    17 1
    17     6    18 1
    18    19     1 1
@<TRIPOS>SUBSTRUCTURE
     1 N3D         1 TEMP              0 ****  ****    0 ROOT
