@<TRIPOS>MOLECULE
N3E
   45    47     1     0     0
SMALL
bcc


@<TRIPOS>ATOM
      1 O2          1.5480   -1.3870    0.6980 o         1 N3E     -0.645500
      2 C2          2.2990   -0.5700    0.1220 c         1 N3E      0.813500
      3 N3          3.5740   -0.3060    0.6480 n         1 N3E     -0.588500
      4 C4          4.4650    0.6200    0.0740 c         1 N3E      0.719700
      5 O4          5.5810    0.7800    0.6000 o         1 N3E     -0.632500
      6 C5          3.9780    1.3250   -1.1130 cc        1 N3E     -0.346200
      7 C6          2.7460    1.0530   -1.6200 cd        1 N3E      0.081600
      8 N1          1.8880    0.1300   -1.0470 n         1 N3E     -0.370000
      9 C1'         0.6320   -0.2640   -1.6800 c3        1 N3E      0.297500
     10 O4'         0.8740   -1.2110   -2.7240 os        1 N3E     -0.405600
     11 C4'         0.6630   -0.6450   -4.0250 c3        1 N3E      0.130100
     12 C5'         1.9910   -0.5940   -4.7820 c3        1 N3E      0.112400
     13 O5'         2.2480   -1.9020   -5.2630 oh        1 N3E     -0.587800
     14 C2'        -0.2210    0.8700   -2.3230 c3        1 N3E      0.109100
     15 O2'         0.1370    2.1340   -1.8080 oh        1 N3E     -0.603800
     16 C3'         0.0700    0.7790   -3.8500 c3        1 N3E      0.125500
     17 N7         -1.0980    1.0260   -4.6920 n3        1 N3E     -0.713600
     18 C13        -0.7550    0.9070   -6.1100 c3        1 N3E      0.162300
     19 C8         -1.7450    2.2920   -4.3560 c3        1 N3E      0.162300
     20 C9         -2.8680    2.7040   -5.3050 c3        1 N3E     -0.055400
     21 C10        -2.4100    2.6740   -6.7450 c3        1 N3E     -0.192700
     22 C12        -1.8830    1.2920   -7.0630 c3        1 N3E     -0.055400
     23 C11        -3.5490    3.0780   -7.7160 c         1 N3E      0.919600
     24 O13        -4.5130    3.7480   -7.2510 o         1 N3E     -0.839800
     25 O12        -3.4310    2.7370   -8.9260 o         1 N3E     -0.839800
     26 HN3         3.8400   -0.8120    1.4640 hn        1 N3E      0.345500
     27 H5          4.6450    2.0740   -1.5540 ha        1 N3E      0.173000
     28 H6          2.3420    1.5800   -2.5080 h4        1 N3E      0.176000
     29 H1'         0.0290   -0.8260   -0.9020 h2        1 N3E      0.128700
     30 H4'        -0.0420   -1.3610   -4.5340 h1        1 N3E      0.114700
     31 H5'1        2.8180   -0.2600   -4.0990 h1        1 N3E      0.031200
     32 H5'2        1.9020    0.1180   -5.6470 h1        1 N3E      0.031200
     33 H5'         3.1070   -1.8670   -5.7010 ho        1 N3E      0.397000
     34 H2'        -1.2990    0.6420   -2.0920 h1        1 N3E      0.084700
     35 H1         -0.5040    2.7670   -2.1610 ho        1 N3E      0.427000
     36 H3'         0.8870    1.5380   -4.0710 h1        1 N3E      0.027700
     37 H131       -0.4730   -0.1680   -6.2950 h1        1 N3E      0.010200
     38 H132        0.1490    1.5410   -6.3570 h1        1 N3E      0.010200
     39 H81        -0.9880    3.1330   -4.3130 h1        1 N3E      0.010200
     40 H82        -2.1850    2.1780   -3.3230 h1        1 N3E      0.010200
     41 H91        -3.2090    3.7380   -5.0380 hc        1 N3E      0.059200
     42 H92        -3.7480    2.0210   -5.1820 hc        1 N3E      0.059200
     43 H10        -1.5880    3.4270   -6.8910 hc        1 N3E      0.028700
     44 H121       -2.7170    0.5480   -6.9940 hc        1 N3E      0.059200
     45 H122       -1.4960    1.2700   -8.1140 hc        1 N3E      0.059200
@<TRIPOS>BOND
     1    1    2 2
     2    2    3 1
     3    2    8 1
     4    3    4 1
     5    3   26 1
     6    4    5 2
     7    4    6 1
     8    6    7 2
     9    6   27 1
    10    7    8 1
    11    7   28 1
    12    8    9 1
    13    9   10 1
    14    9   14 1
    15    9   29 1
    16   10   11 1
    17   11   12 1
    18   11   16 1
    19   11   30 1
    20   12   13 1
    21   12   31 1
    22   12   32 1
    23   13   33 1
    24   14   15 1
    25   14   16 1
    26   14   34 1
    27   15   35 1
    28   16   17 1
    29   16   36 1
    30   17   18 1
    31   17   19 1
    32   18   22 1
    33   18   37 1
    34   18   38 1
    35   19   20 1
    36   19   39 1
    37   19   40 1
    38   20   21 1
    39   20   41 1
    40   20   42 1
    41   21   22 1
    42   21   23 1
    43   21   43 1
    44   22   44 1
    45   22   45 1
    46   23   24 1
    47   23   25 1
@<TRIPOS>SUBSTRUCTURE
     1 N3E         1 TEMP              0 ****  ****    0 ROOT
