@<TRIPOS>MOLECULE
molecule
   38    40     1     0     0
SMALL
bcc


@<TRIPOS>ATOM
      1 NAA          0.0000     0.0000     0.0000 nv         1 N3F      -0.988200
      2 OAB          1.9540    -1.7290     8.6600 o          1 N3F      -0.530100
      3 CAC          1.1810     2.6480    10.8800 ca         1 N3F      -0.102000
      4 CAD          1.0830     2.8450     9.5150 ca         1 N3F      -0.143500
      5 CAE          1.4160     1.3820    11.3880 ca         1 N3F      -0.143500
      6 CAF          3.6790     0.0000     0.0000 ca         1 N3F      -0.167000
      7 CAG          3.9450     0.0000     1.3560 ca         1 N3F      -0.096000
      8 CAH          2.3720    -0.0000    -0.4520 ca         1 N3F      -0.106000
      9 CAI          1.2190     1.7800     8.6490 ca         1 N3F      -0.086000
     10 CAJ          1.5540     0.3080    10.5340 ca         1 N3F      -0.086000
     11 CAK          1.7820    -1.0590     4.5180 ca         1 N3F      -0.189000
     12 CAL          0.0860     0.5790     5.0410 ca         1 N3F      -0.189000
     13 CAM          2.9060     0.0000     2.2700 ca         1 N3F      -0.198000
     14 CAN          2.0430    -1.2180     5.8500 ca         1 N3F      -0.061500
     15 CAO          0.3420     0.4260     6.3740 ca         1 N3F      -0.061500
     16 NAP          0.5400    -0.0000     2.7480 nu         1 N3F      -0.673000
     17 CAQ          1.6030    -0.6460     8.2330 c          1 N3F       0.594300
     18 CAR          1.3240     0.0000     0.4550 ca         1 N3F       0.098600
     19 CAS          0.8020    -0.1600     4.1020 ca         1 N3F       0.193600
     20 CAT          1.4570     0.4990     9.1550 ca         1 N3F      -0.170600
     21 CAU          1.3250    -0.4770     6.7950 ca         1 N3F      -0.199600
     22 CAV          1.5930     0.0000     1.8250 ca         1 N3F       0.168600
     23 HNAA        -0.4740    -0.8670    -0.1600 hn         1 N3F       0.424800
     24 HNAB        -0.4590     0.8660    -0.2050 hn         1 N3F       0.424800
     25 HAC          1.0730     3.4880    11.5560 ha         1 N3F       0.131000
     26 HAD          0.8990     3.8380     9.1250 ha         1 N3F       0.133500
     27 HAE          1.4910     1.2340    12.4590 ha         1 N3F       0.133500
     28 HAF          4.4960    -0.0000    -0.7110 ha         1 N3F       0.130000
     29 HAG          4.9700     0.0000     1.7050 ha         1 N3F       0.131000
     30 HAH          2.1670    -0.0000    -1.5160 ha         1 N3F       0.136000
     31 HAI          1.1430     1.9370     7.5800 ha         1 N3F       0.150000
     32 HAJ          1.7380    -0.6820    10.9330 ha         1 N3F       0.150000
     33 HAK          2.3370    -1.6320     3.7860 ha         1 N3F       0.144500
     34 HAL         -0.6750     1.2770     4.7140 ha         1 N3F       0.144500
     35 HAM          3.1190     0.0000     3.3320 ha         1 N3F       0.150000
     36 HAN          2.8050    -1.9160     6.1730 ha         1 N3F       0.147500
     37 HAO         -0.2160     1.0010     7.1030 ha         1 N3F       0.147500
     38 HNAP        -0.4030     0.1070     2.4300 hn         1 N3F       0.457800
@<TRIPOS>BOND
     1     1    18 1
     2     2    17 2
     3     3     4 ar
     4     3     5 ar
     5     4     9 ar
     6     5    10 ar
     7     6     7 ar
     8     6     8 ar
     9     7    13 ar
    10     8    18 ar
    11     9    20 ar
    12    10    20 ar
    13    11    14 ar
    14    11    19 ar
    15    12    15 ar
    16    12    19 ar
    17    13    22 ar
    18    14    21 ar
    19    15    21 ar
    20    16    19 1
    21    16    22 1
    22    17    20 1
    23    17    21 1
    24    18    22 ar
    25     1    23 1
    26     1    24 1
    27     3    25 1
    28     4    26 1
    29     5    27 1
    30     6    28 1
    31     7    29 1
    32     8    30 1
    33     9    31 1
    34    10    32 1
    35    11    33 1
    36    12    34 1
    37    13    35 1
    38    14    36 1
    39    15    37 1
    40    16    38 1
@<TRIPOS>SUBSTRUCTURE
     1 N3F         1 TEMP              0 ****  ****    0 ROOT
