@<TRIPOS>MOLECULE
N3F
   38    40     1     0     0
SMALL
bcc


@<TRIPOS>ATOM
      1 NAA          0.0000     0.0000     0.0000 nv         1 N3F      -0.553200
      2 OAB          1.9540    -1.7290     8.6600 o          1 N3F      -0.563100
      3 CAC          1.1810     2.6480    10.8800 ca         1 N3F      -0.073000
      4 CAD          1.0830     2.8450     9.5150 ca         1 N3F      -0.116500
      5 CAE          1.4160     1.3820    11.3880 ca         1 N3F      -0.116500
      6 CAF          3.6790     0.0000     0.0000 ca         1 N3F      -0.143000
      7 CAG          3.9450     0.0000     1.3560 ca         1 N3F      -0.057000
      8 CAH          2.3720    -0.0000    -0.4520 ca         1 N3F      -0.071000
      9 CAI          1.2190     1.7800     8.6490 ca         1 N3F      -0.064500
     10 CAJ          1.5540     0.3080    10.5340 ca         1 N3F      -0.064500
     11 CAK          1.7820    -1.0590     4.5180 ca         1 N3F      -0.169000
     12 CAL          0.0860     0.5790     5.0410 ca         1 N3F      -0.169000
     13 CAM          2.9060     0.0000     2.2700 ca         1 N3F      -0.190000
     14 CAN          2.0430    -1.2180     5.8500 ca         1 N3F      -0.032000
     15 CAO          0.3420     0.4260     6.3740 ca         1 N3F      -0.032000
     16 NAP          0.5400    -0.0000     2.7480 nu         1 N3F      -0.214000
     17 CAQ          1.6030    -0.6460     8.2330 c          1 N3F       0.654300
     18 CAR          1.3240     0.0000     0.4550 ca         1 N3F      -0.038400
     19 CAS          0.8020    -0.1600     4.1020 ca         1 N3F       0.042600
     20 CAT          1.4570     0.4990     9.1550 ca         1 N3F      -0.177600
     21 CAU          1.3250    -0.4770     6.7950 ca         1 N3F      -0.207600
     22 CAV          1.5930     0.0000     1.8250 ca         1 N3F       0.023600
     23 HNAA        -0.4740    -0.8670    -0.1600 hn         1 N3F       0.270300
     24 HNAB        -0.4590     0.8660    -0.2050 hn         1 N3F       0.270300
     25 HAC          1.0730     3.4880    11.5560 ha         1 N3F       0.102000
     26 HAD          0.8990     3.8380     9.1250 ha         1 N3F       0.106000
     27 HAE          1.4910     1.2340    12.4590 ha         1 N3F       0.106000
     28 HAF          4.4960    -0.0000    -0.7110 ha         1 N3F       0.104000
     29 HAG          4.9700     0.0000     1.7050 ha         1 N3F       0.100000
     30 HAH          2.1670    -0.0000    -1.5160 ha         1 N3F       0.105000
     31 HAI          1.1430     1.9370     7.5800 ha         1 N3F       0.126000
     32 HAJ          1.7380    -0.6820    10.9330 ha         1 N3F       0.126000
     33 HAK          2.3370    -1.6320     3.7860 ha         1 N3F       0.123000
     34 HAL         -0.6750     1.2770     4.7140 ha         1 N3F       0.123000
     35 HAM          3.1190     0.0000     3.3320 ha         1 N3F       0.138000
     36 HAN          2.8050    -1.9160     6.1730 ha         1 N3F       0.121000
     37 HAO         -0.2160     1.0010     7.1030 ha         1 N3F       0.121000
     38 HNAP        -0.4030     0.1070     2.4300 hn         1 N3F       0.291800
@<TRIPOS>BOND
     1     1    18 1   
     2     1    23 1   
     3     1    24 1   
     4     2    17 2   
     5     3     4 ar  
     6     3     5 ar  
     7     3    25 1   
     8     4     9 ar  
     9     4    26 1   
    10     5    10 ar  
    11     5    27 1   
    12     6     7 ar  
    13     6     8 ar  
    14     6    28 1   
    15     7    13 ar  
    16     7    29 1   
    17     8    18 ar  
    18     8    30 1   
    19     9    20 ar  
    20     9    31 1   
    21    10    20 ar  
    22    10    32 1   
    23    11    14 ar  
    24    11    19 ar  
    25    11    33 1   
    26    12    15 ar  
    27    12    19 ar  
    28    12    34 1   
    29    13    22 ar  
    30    13    35 1   
    31    14    21 ar  
    32    14    36 1   
    33    15    21 ar  
    34    15    37 1   
    35    16    19 1   
    36    16    22 1   
    37    16    38 1   
    38    17    20 1   
    39    17    21 1   
    40    18    22 ar  
@<TRIPOS>SUBSTRUCTURE
     1 N3F         1 TEMP              0 ****  ****    0 ROOT
