@<TRIPOS>MOLECULE
N3H
   58    61     1     0     0
SMALL
bcc


@<TRIPOS>ATOM
      1 C4           0.0000     0.0000     0.0000 cc         1 N3H      -0.081000
      2 C5           8.7460     4.1900    -2.1920 ca         1 N3H       0.003000
      3 C6           0.2870     0.0000     2.2730 cd         1 N3H       0.017900
      4 C7           6.8820     2.9990    -1.2230 ca         1 N3H       0.199400
      5 C8           9.1220     4.6290    -0.9250 ca         1 N3H       0.014600
      6 C10          1.3490     0.0000     0.0000 cd         1 N3H      -0.053000
      7 C13          3.4070     0.7480    -1.2180 cd         1 N3H       0.130500
      8 C15          3.7820    -0.0260    -3.4810 c          1 N3H       0.618700
      9 C17          2.7760    -5.2040    -5.4990 c3         1 N3H       0.003400
     10 C21          2.3120    -3.7550    -5.6680 c3         1 N3H      -0.048700
     11 O31         11.4560     7.3790     0.0740 o          1 N3H      -0.585800
     12 S35         10.1750     6.7790     0.2070 s6         1 N3H       0.954900
     13 O30          9.7280     6.2740     1.4570 o          1 N3H      -0.585800
     14 C18          8.9010     7.8250    -0.5500 c3         1 N3H       0.016700
     15 N26         10.2480     5.4440    -0.7710 nu         1 N3H      -0.410500
     16 C3           8.3750     4.2540     0.1860 ca         1 N3H      -0.104000
     17 C9           7.6400     3.3920    -2.3330 ca         1 N3H      -0.173500
     18 S34          7.1110     2.8280    -3.9240 sy         1 N3H       1.025200
     19 O28          6.2100     3.8020    -4.4310 o          1 N3H      -0.577800
     20 O29          8.2730     2.3930    -4.6180 o          1 N3H      -0.577800
     21 N24          6.2100     1.4650    -3.5740 nu         1 N3H      -0.492100
     22 C14          5.4560     1.5090    -2.4110 ce         1 N3H       0.641500
     23 N22          5.7970     2.1930    -1.3640 nf         1 N3H      -0.571100
     24 C2           7.2660     3.4490     0.0470 ca         1 N3H      -0.082000
     25 C12          4.2020     0.7380    -2.3630 cc         1 N3H      -0.313800
     26 O32          3.7770     1.4660    -0.1340 oh         1 N3H      -0.449100
     27 O27          4.4580    -0.0530    -4.4950 o          1 N3H      -0.702500
     28 N25          2.6320    -0.7240    -3.4150 n          1 N3H       0.178200
     29 C19          2.7650    -2.9300    -4.4620 c3         1 N3H      -0.046400
     30 C16          2.9210    -3.1710    -6.9450 c3         1 N3H       0.003400
     31 N23          1.8400    -0.6940    -2.2620 nc         1 N3H      -0.481300
     32 C11          2.2020     0.0000    -1.2070 cd         1 N3H       0.429200
     33 S33          1.9340     0.0000     1.6590 ss         1 N3H      -0.225800
     34 C1          -0.5760     0.0000     1.2530 cc         1 N3H      -0.136000
     35 H4          -0.5850     0.0000    -0.9120 ha         1 N3H       0.129000
     36 H5           9.2560     4.5690    -3.0700 ha         1 N3H       0.116000
     37 H6           0.0140     0.0000     3.3210 h4         1 N3H       0.151000
     38 H17          3.8580    -5.2340    -5.4590 hc         1 N3H       0.006200
     39 H17A         2.4290    -5.7940    -6.3380 hc         1 N3H       0.006200
     40 H17B         2.3690    -5.6080    -4.5800 hc         1 N3H       0.006200
     41 H20          2.5540    -1.0500    -5.4820 h1         1 N3H       0.050200
     42 H20A         1.1140    -1.5600    -4.5900 h1         1 N3H       0.050200
     43 H21          1.2310    -3.7280    -5.7380 hc         1 N3H       0.024700
     44 H18          7.9210     7.4790    -0.2440 h1         1 N3H       0.065367
     45 H18A         8.9830     7.7710    -1.6280 h1         1 N3H       0.065367
     46 H18B         9.0380     8.8510    -0.2280 h1         1 N3H       0.065367
     47 HN26        11.1110     5.1920    -1.2100 hn         1 N3H       0.354800
     48 H3           8.6690     4.5970     1.1710 ha         1 N3H       0.168000
     49 HN24         5.9010     0.8890    -4.3320 hn         1 N3H       0.416800
     50 H2           6.6910     3.1620     0.9190 ha         1 N3H       0.123000
     51 HO32         3.2810     2.2670    -0.1030 ho         1 N3H       0.423000
     52 H19          3.8480    -2.8840    -4.4430 hc         1 N3H       0.029700
     53 H19A         2.4070    -3.3950    -3.5520 hc         1 N3H       0.029700
     54 H16          3.9560    -2.9090    -6.7640 hc         1 N3H       0.006200
     55 H16A         2.3700    -2.2840    -7.2340 hc         1 N3H       0.006200
     56 H16B         2.8670    -3.9050    -7.7400 hc         1 N3H       0.006200
     57 H1          -1.6490     0.0000     1.4000 ha         1 N3H       0.124000
     58 C20          2.1960    -1.5140    -4.5710 c3         1 N3H       0.041000
@<TRIPOS>BOND
     1     1     6 2   
     2     1    34 1   
     3     1    35 1   
     4     2     5 ar  
     5     2    17 ar  
     6     2    36 1   
     7     3    33 1   
     8     3    34 2   
     9     3    37 1   
    10     4    17 ar  
    11     4    23 1   
    12     4    24 ar  
    13     5    15 1   
    14     5    16 ar  
    15     6    32 1   
    16     6    33 1   
    17     7    25 2   
    18     7    26 1   
    19     7    32 1   
    20     8    25 1   
    21     8    27 2   
    22     8    28 1   
    23     9    10 1   
    24     9    38 1   
    25     9    39 1   
    26     9    40 1   
    27    10    29 1   
    28    10    30 1   
    29    10    43 1   
    30    11    12 2   
    31    12    13 2   
    32    12    14 1   
    33    12    15 1   
    34    14    44 1   
    35    14    45 1   
    36    14    46 1   
    37    15    47 1   
    38    16    24 ar  
    39    16    48 1   
    40    17    18 1   
    41    18    19 2   
    42    18    20 2   
    43    18    21 1   
    44    21    22 1   
    45    21    49 1   
    46    22    23 2   
    47    22    25 1   
    48    24    50 1   
    49    26    51 1   
    50    28    31 1   
    51    28    58 1   
    52    29    52 1   
    53    29    53 1   
    54    29    58 1   
    55    30    54 1   
    56    30    55 1   
    57    30    56 1   
    58    31    32 2   
    59    34    57 1   
    60    41    58 1   
    61    42    58 1   
@<TRIPOS>SUBSTRUCTURE
     1 N3H         1 TEMP              0 ****  ****    0 ROOT
