@<TRIPOS>MOLECULE
molecule
   58    61     1     0     0
SMALL
bcc


@<TRIPOS>ATOM
      1 C4           0.0000     0.0000     0.0000 cc         1 N3H      -0.109000
      2 C5           8.7460     4.1900    -2.1920 ca         1 N3H      -0.025000
      3 C6           0.2870     0.0000     2.2730 cd         1 N3H      -0.069100
      4 C7           6.8820     2.9990    -1.2230 ca         1 N3H       0.247400
      5 C8           9.1220     4.6290    -0.9250 ca         1 N3H       0.103600
      6 C10          1.3490     0.0000     0.0000 cd         1 N3H      -0.104000
      7 C13          3.4070     0.7480    -1.2180 cd         1 N3H       0.117500
      8 C15          3.7820    -0.0260    -3.4810 c          1 N3H       0.692700
      9 C17          2.7760    -5.2040    -5.4990 c3         1 N3H      -0.089600
     10 C21          2.3120    -3.7550    -5.6680 c3         1 N3H      -0.075700
     11 O31         11.4560     7.3790     0.0740 o          1 N3H      -0.627800
     12 S35         10.1750     6.7790     0.2070 s6         1 N3H       1.326900
     13 O30          9.7280     6.2740     1.4570 o          1 N3H      -0.627800
     14 C18          8.9010     7.8250    -0.5500 c3         1 N3H      -0.242300
     15 N26         10.2480     5.4440    -0.7710 nu         1 N3H      -0.770500
     16 C3           8.3750     4.2540     0.1860 ca         1 N3H      -0.113000
     17 C9           7.6400     3.3920    -2.3330 ca         1 N3H      -0.326500
     18 S34          7.1110     2.8280    -3.9240 sy         1 N3H       1.392200
     19 O28          6.2100     3.8020    -4.4310 o          1 N3H      -0.616800
     20 O29          8.2730     2.3930    -4.6180 o          1 N3H      -0.616800
     21 N24          6.2100     1.4650    -3.5740 nu         1 N3H      -0.827100
     22 C14          5.4560     1.5090    -2.4110 ce         1 N3H       0.761500
     23 N22          5.7970     2.1930    -1.3640 nf         1 N3H      -0.674100
     24 C2           7.2660     3.4490     0.0470 ca         1 N3H      -0.101000
     25 C12          4.2020     0.7380    -2.3630 cc         1 N3H      -0.278800
     26 O32          3.7770     1.4660    -0.1340 oh         1 N3H      -0.474100
     27 O27          4.4580    -0.0530    -4.4950 o          1 N3H      -0.661500
     28 N25          2.6320    -0.7240    -3.4150 n          1 N3H      -0.184800
     29 C19          2.7650    -2.9300    -4.4620 c3         1 N3H      -0.098400
     30 C16          2.9210    -3.1710    -6.9450 c3         1 N3H      -0.089600
     31 N23          1.8400    -0.6940    -2.2620 nc         1 N3H      -0.397300
     32 C11          2.2020     0.0000    -1.2070 cd         1 N3H       0.424200
     33 S33          1.9340     0.0000     1.6590 ss         1 N3H      -0.078800
     34 C1          -0.5760     0.0000     1.2530 cc         1 N3H      -0.166000
     35 H4          -0.5850     0.0000    -0.9120 ha         1 N3H       0.159000
     36 H5           9.2560     4.5690    -3.0700 ha         1 N3H       0.146000
     37 H6           0.0140     0.0000     3.3210 h4         1 N3H       0.177000
     38 H17          3.8580    -5.2340    -5.4590 hc         1 N3H       0.037533
     39 H17A         2.4290    -5.7940    -6.3380 hc         1 N3H       0.037533
     40 H17B         2.3690    -5.6080    -4.5800 hc         1 N3H       0.037533
     41 H20          2.5540    -1.0500    -5.4820 h1         1 N3H       0.078700
     42 H20A         1.1140    -1.5600    -4.5900 h1         1 N3H       0.078700
     43 H21          1.2310    -3.7280    -5.7380 hc         1 N3H       0.048700
     44 H18          7.9210     7.4790    -0.2440 h1         1 N3H       0.101700
     45 H18A         8.9830     7.7710    -1.6280 h1         1 N3H       0.101700
     46 H18B         9.0380     8.8510    -0.2280 h1         1 N3H       0.101700
     47 HN26        11.1110     5.1920    -1.2100 hn         1 N3H       0.470800
     48 H3           8.6690     4.5970     1.1710 ha         1 N3H       0.188000
     49 HN24         5.9010     0.8890    -4.3320 hn         1 N3H       0.505800
     50 H2           6.6910     3.1620     0.9190 ha         1 N3H       0.158000
     51 HO32         3.2810     2.2670    -0.1030 ho         1 N3H       0.447000
     52 H19          3.8480    -2.8840    -4.4430 hc         1 N3H       0.058200
     53 H19A         2.4070    -3.3950    -3.5520 hc         1 N3H       0.058200
     54 H16          3.9560    -2.9090    -6.7640 hc         1 N3H       0.037533
     55 H16A         2.3700    -2.2840    -7.2340 hc         1 N3H       0.037533
     56 H16B         2.8670    -3.9050    -7.7400 hc         1 N3H       0.037533
     57 H1          -1.6490     0.0000     1.4000 ha         1 N3H       0.154000
     58 C20          2.1960    -1.5140    -4.5710 c3         1 N3H       0.120000
@<TRIPOS>BOND
     1     1     6 2
     2     1    34 1
     3     2     5 ar
     4     2    17 ar
     5     3    33 1
     6     3    34 2
     7     4    17 ar
     8     4    23 1
     9     4    24 ar
    10     5    15 1
    11     5    16 ar
    12     6    32 1
    13     6    33 1
    14     7    25 2
    15     7    26 1
    16     7    32 1
    17     8    25 1
    18     8    27 2
    19     8    28 1
    20     9    10 1
    21    58    28 1
    22    58    29 1
    23    10    29 1
    24    10    30 1
    25    11    12 2
    26    12    13 2
    27    12    14 1
    28    12    15 1
    29    16    24 ar
    30    17    18 1
    31    18    19 2
    32    18    20 2
    33    18    21 1
    34    21    22 1
    35    22    23 2
    36    22    25 1
    37    28    31 1
    38    31    32 2
    39     1    35 1
    40     2    36 1
    41     3    37 1
    42     9    38 1
    43     9    39 1
    44     9    40 1
    45    58    41 1
    46    58    42 1
    47    10    43 1
    48    14    44 1
    49    14    45 1
    50    14    46 1
    51    15    47 1
    52    16    48 1
    53    21    49 1
    54    24    50 1
    55    26    51 1
    56    29    52 1
    57    29    53 1
    58    30    54 1
    59    30    55 1
    60    30    56 1
    61    34    57 1
@<TRIPOS>SUBSTRUCTURE
     1 N3H         1 TEMP              0 ****  ****    0 ROOT
