@<TRIPOS>MOLECULE
N3M
   21    21     1     0     0
SMALL
bcc


@<TRIPOS>ATOM
      1 CAA          0.0000     0.0000     0.0000 c3         1 N3M      -0.069100
      2 OAC          2.1130     0.0000     1.0510 o          1 N3M      -0.632100
      3 CAD          5.6960    -0.4090    -0.1580 ca         1 N3M      -0.032000
      4 CAE          6.3430     0.2850    -1.1630 ca         1 N3M      -0.200000
      5 CAF          4.3180    -0.5040    -0.1570 ca         1 N3M      -0.166000
      6 CAG          4.2230     0.7940    -2.1790 ca         1 N3M      -0.222000
      7 NAH          2.1810    -0.0000    -1.1660 ns         1 N3M      -0.039100
      8 CAI          1.5070     0.0000     0.0000 c          1 N3M       0.557100
      9 CAJ          5.6080     0.8880    -2.1770 ca         1 N3M       0.070600
     10 CAK          3.5780     0.0970    -1.1680 ca         1 N3M      -0.043400
     11 HAA         -0.3610    -0.7590    -0.6840 hc         1 N3M       0.023033
     12 HAAA        -0.3610    -0.2130     0.9990 hc         1 N3M       0.023033
     13 HAAB        -0.3610     0.9710    -0.3150 hc         1 N3M       0.023033
     14 HNAB         5.7320     2.0420    -3.9100 hn         1 N3M       0.264300
     15 HNAA         7.2610     1.6500    -3.1950 hn         1 N3M       0.264300
     16 HAD          6.2700    -0.8780     0.6310 ha         1 N3M       0.099000
     17 HAE          7.4230     0.3570    -1.1610 ha         1 N3M       0.107000
     18 HAF          3.8130    -1.0480     0.6320 ha         1 N3M       0.146000
     19 HAG          3.6480     1.2630    -2.9680 ha         1 N3M       0.109000
     20 HNAH         1.6850    -0.0880    -2.0310 hn         1 N3M       0.164500
     21 NAB          6.2620     1.5880    -3.1930 nv         1 N3M      -0.450200
@<TRIPOS>BOND
     1     1     8 1   
     2     1    11 1   
     3     1    12 1   
     4     1    13 1   
     5     2     8 2   
     6     3     4 ar  
     7     3     5 ar  
     8     3    16 1   
     9     4     9 ar  
    10     4    17 1   
    11     5    10 ar  
    12     5    18 1   
    13     6     9 ar  
    14     6    10 ar  
    15     6    19 1   
    16     7     8 1   
    17     7    10 1   
    18     7    20 1   
    19     9    21 1   
    20    14    21 1   
    21    15    21 1   
@<TRIPOS>SUBSTRUCTURE
     1 N3M         1 TEMP              0 ****  ****    0 ROOT
