@<TRIPOS>MOLECULE
molecule
   21    21     1     0     0
SMALL
bcc


@<TRIPOS>ATOM
      1 CAA          0.0000     0.0000     0.0000 c3         1 N3M      -0.171100
      2 OAC          2.1130     0.0000     1.0510 o          1 N3M      -0.591100
      3 CAD          5.6960    -0.4090    -0.1580 ca         1 N3M      -0.068000
      4 CAE          6.3430     0.2850    -1.1630 ca         1 N3M      -0.224000
      5 CAF          4.3180    -0.5040    -0.1570 ca         1 N3M      -0.183000
      6 CAG          4.2230     0.7940    -2.1790 ca         1 N3M      -0.245000
      7 NAH          2.1810    -0.0000    -1.1660 ns         1 N3M      -0.481100
      8 CAI          1.5070     0.0000     0.0000 c          1 N3M       0.657100
      9 CAJ          5.6080     0.8880    -2.1770 ca         1 N3M       0.219600
     10 CAK          3.5780     0.0970    -1.1680 ca         1 N3M       0.096600
     11 HAA         -0.3610    -0.7590    -0.6840 hc         1 N3M       0.062367
     12 HAAA        -0.3610    -0.2130     0.9990 hc         1 N3M       0.062367
     13 HAAB        -0.3610     0.9710    -0.3150 hc         1 N3M       0.062367
     14 HNAB         5.7320     2.0420    -3.9100 hn         1 N3M       0.428300
     15 HNAA         7.2610     1.6500    -3.1950 hn         1 N3M       0.428300
     16 HAD          6.2700    -0.8780     0.6310 ha         1 N3M       0.132000
     17 HAE          7.4230     0.3570    -1.1610 ha         1 N3M       0.127000
     18 HAF          3.8130    -1.0480     0.6320 ha         1 N3M       0.163000
     19 HAG          3.6480     1.2630    -2.9680 ha         1 N3M       0.126000
     20 HNAH         1.6850    -0.0880    -2.0310 hn         1 N3M       0.321500
     21 NAB          6.2620     1.5880    -3.1930 nv         1 N3M      -0.923200
@<TRIPOS>BOND
     1     1     8 1
     2    21     9 1
     3     2     8 2
     4     3     4 ar
     5     3     5 ar
     6     4     9 ar
     7     5    10 ar
     8     6     9 ar
     9     6    10 ar
    10     7     8 1
    11     7    10 1
    12     1    11 1
    13     1    12 1
    14     1    13 1
    15    21    14 1
    16    21    15 1
    17     3    16 1
    18     4    17 1
    19     5    18 1
    20     6    19 1
    21     7    20 1
@<TRIPOS>SUBSTRUCTURE
     1 N3M         1 TEMP              0 ****  ****    0 ROOT
