@<TRIPOS>MOLECULE
molecule
   36    38     1     0     0
SMALL
bcc


@<TRIPOS>ATOM
      1 CAF          0.0000     0.0000     0.0000 ca         1 N3P      -0.156000
      2 CAG          1.3920     0.0000     0.0000 ca         1 N3P      -0.184000
      3 CAH          3.8310    -0.2410    10.1270 ca         1 N3P      -0.114000
      4 CAI          1.8360    -1.4610    10.7360 ca         1 N3P      -0.114000
      5 CAJ          3.3610    -0.1250     8.8180 ca         1 N3P      -0.152000
      6 CAK          1.3660    -1.3450     9.4280 ca         1 N3P      -0.152000
      7 CAL         -0.6980     0.0010     1.2080 ca         1 N3P      -0.107000
      8 CAM          2.0910     0.0000     1.2080 ca         1 N3P      -0.106000
      9 CAN         -0.6990     0.0010     3.6580 ca         1 N3P      -0.200000
     10 CAO          2.0900     0.0010     3.6580 ca         1 N3P      -0.067000
     11 CAS          3.0690    -0.9080    11.0850 ca         1 N3P      -0.028600
     12 CAT          2.1370    -0.6790     8.4900 ca         1 N3P       0.088600
     13 CAU          0.0000     0.0010     4.8650 ca         1 N3P       0.283100
     14 CAV          1.3920     0.0010     4.8660 ca         1 N3P      -0.198600
     15 CAW         -0.0120     0.0000     2.4330 ca         1 N3P       0.013000
     16 CAX          1.4040     0.0010     2.4330 ca         1 N3P      -0.102000
     17 NAP          1.4970    -0.6330     7.1900 ns         1 N3P      -0.459100
     18 OAA          3.2400     0.5570     6.2140 o          1 N3P      -0.658100
     19 OAB         -3.0030     1.1770     5.5260 o          1 N3P      -0.857833
     20 OAC         -2.7520    -1.4500     5.5950 o          1 N3P      -0.857833
     21 OAD         -2.5520    -0.1380     7.7500 o          1 N3P      -0.857833
     22 OAQ         -0.7000     0.0020     6.0350 os         1 N3P      -0.419500
     23 PAY         -2.3130     0.0020     6.1550 p5         1 N3P       1.075900
     24 HAF         -0.5410    -0.0000    -0.9380 ha         1 N3P       0.103000
     25 HAG          1.9340    -0.0010    -0.9380 ha         1 N3P       0.097000
     26 HAH          4.7880     0.1880    10.3990 ha         1 N3P       0.127500
     27 HAI          1.2450    -1.9790    11.4800 ha         1 N3P       0.127500
     28 HAJ          3.9480     0.3930     8.0690 ha         1 N3P       0.181000
     29 HAK          0.4100    -1.7710     9.1490 ha         1 N3P       0.181000
     30 HAL         -1.7810     0.0010     1.2000 ha         1 N3P       0.139000
     31 HAM          3.1740    -0.0000     1.2010 ha         1 N3P       0.104000
     32 HAN         -1.7820     0.0010     3.6660 ha         1 N3P       0.204000
     33 HAO          3.1740    -0.0000     3.6650 ha         1 N3P       0.123000
     34 HNAP         0.6080    -1.0880     7.1250 hn         1 N3P       0.397500
     35 CAR          2.1390     0.0020     6.1170 c          1 N3P       0.711700
     36 ClA          3.6490    -1.0510    12.6990 cl         1 N3P      -0.165400
@<TRIPOS>BOND
     1     1     2 ar
     2     1     7 ar
     3     1    24 1
     4     2     8 ar
     5     2    25 1
     6     3     5 ar
     7     3    11 ar
     8     3    26 1
     9     4     6 ar
    10     4    11 ar
    11     4    27 1
    12     5    12 ar
    13     5    28 1
    14     6    12 ar
    15     6    29 1
    16     7    15 ar
    17     7    30 1
    18     8    16 ar
    19     8    31 1
    20     9    15 ar
    21     9    13 ar
    22     9    32 1
    23    10    16 ar
    24    10    14 ar
    25    10    33 1
    26    35    18 2
    27    35    14 1
    28    35    17 1
    29    11    36 1
    30    12    17 1
    31    13    14 ar
    32    13    22 1
    33    15    16 ar
    34    17    34 1
    35    19    23 1
    36    20    23 1
    37    21    23 1
    38    22    23 1
@<TRIPOS>SUBSTRUCTURE
     1 N3P         1 TEMP              0 ****  ****    0 ROOT
