@<TRIPOS>MOLECULE
molecule
   43    44     1     0     0
SMALL
bcc


@<TRIPOS>ATOM
      1 N1'          0.0000     0.0000     0.0000 nb         1 N3T      -0.716000
      2 C2'          1.3630     0.0000     0.0000 ca         1 N3T       0.437600
      3 CM2          2.0560     0.4200    -1.2230 c3         1 N3T      -0.146400
      4 C3'          2.0500     0.0000     1.2130 ca         1 N3T      -0.293300
      5 C4'          1.2750    -0.2920     2.3490 ca         1 N3T       0.236600
      6 N4'          1.8890    -0.2510     3.4840 nv         1 N3T      -0.948200
      7 C5'         -0.0520    -0.7840     2.2240 ca         1 N3T      -0.256600
      8 C6'         -0.7030    -0.4000     1.1130 ca         1 N3T       0.424200
      9 C7'         -0.8190    -1.2850     3.4290 c3         1 N3T       0.108600
     10 N3          -0.3260    -2.6350     3.9930 na         1 N3T      -0.002100
     11 C2           0.6610    -2.7910     4.9050 cc         1 N3T      -0.332400
     12 S1           0.9730    -4.4100     5.2250 ss         1 N3T       0.294200
     13 C5          -0.2310    -4.8570     4.0620 cc         1 N3T      -0.086400
     14 C4          -0.8920    -3.7710     3.6070 cd         1 N3T      -0.090600
     15 CM4         -2.0400    -3.7640     2.6240 c3         1 N3T      -0.023800
     16 C6          -0.5130    -6.2760     3.6640 c3         1 N3T      -0.007100
     17 C7          -0.1100    -7.3420     4.6060 c3         1 N3T       0.201400
     18 O7           1.2820    -7.2660     4.3520 os         1 N3T      -0.613200
     19 PA           2.2590    -8.3860     4.7260 p5         1 N3T       1.493800
     20 O1A          3.5590    -8.0000     4.1080 o          1 N3T      -0.877000
     21 O2A          1.7090    -9.7350     4.3230 o          1 N3T      -0.877000
     22 O3A          2.3870    -8.4490     6.3250 os         1 N3T      -0.764800
     23 PB           1.9960    -9.4650     7.4930 p5         1 N3T       1.470900
     24 O1B          2.7460    -9.0290     8.6720 o          1 N3T      -0.826167
     25 O2B          2.3870   -10.7520     6.8410 o          1 N3T      -0.826167
     26 O3B          0.5520    -9.2610     7.5430 o          1 N3T      -0.826167
     27 HM21         2.9360    -0.1950    -1.3690 hc         1 N3T       0.050367
     28 HM22         1.3920     0.3070    -2.0710 hc         1 N3T       0.050367
     29 HM23         2.3520     1.4580    -1.1320 hc         1 N3T       0.050367
     30 H3'          3.1320    -0.0050     1.2500 ha         1 N3T       0.152000
     31 HN41         2.6240    -0.9010     3.6790 hn         1 N3T       0.440800
     32 HN42         1.6730     0.4710     4.1430 hn         1 N3T       0.440800
     33 H6'         -1.7680    -0.5670     1.0120 h4         1 N3T       0.014100
     34 H7'1        -0.7470    -0.5400     4.2120 h1         1 N3T       0.058700
     35 H7'2        -1.8600    -1.3900     3.1500 h1         1 N3T       0.058700
     36 H2           1.1720    -1.9680     5.3900 h5         1 N3T       0.174000
     37 HM41        -1.6680    -3.5230     1.6360 hc         1 N3T       0.047367
     38 HM42        -2.5060    -4.7420     2.6060 hc         1 N3T       0.047367
     39 HM43        -2.7700    -3.0220     2.9260 hc         1 N3T       0.047367
     40 H61         -0.0120    -6.4610     2.7220 hc         1 N3T       0.043200
     41 H62         -1.5800    -6.3670     3.4990 hc         1 N3T       0.043200
     42 H71         -0.5180    -8.3040     4.3220 h1         1 N3T       0.064700
     43 H72         -0.3460    -7.0830     5.6310 h1         1 N3T       0.064700
@<TRIPOS>BOND
     1     1     2 ar
     2     1     8 ar
     3     2     3 1
     4     2     4 ar
     5     3    27 1
     6     3    28 1
     7     3    29 1
     8     4     5 ar
     9     4    30 1
    10     5     6 1
    11     5     7 ar
    12     6    31 1
    13     6    32 1
    14     7     8 ar
    15     7     9 1
    16     8    33 1
    17     9    10 1
    18     9    34 1
    19     9    35 1
    20    10    11 2
    21    10    14 1
    22    11    12 1
    23    11    36 1
    24    12    13 1
    25    13    14 2
    26    13    16 1
    27    14    15 1
    28    15    37 1
    29    15    38 1
    30    15    39 1
    31    16    17 1
    32    16    40 1
    33    16    41 1
    34    17    18 1
    35    17    42 1
    36    17    43 1
    37    18    19 1
    38    19    20 1
    39    19    21 1
    40    19    22 1
    41    22    23 1
    42    23    24 1
    43    23    25 1
    44    23    26 1
@<TRIPOS>SUBSTRUCTURE
     1 N3T         1 TEMP              0 ****  ****    0 ROOT
