@<TRIPOS>MOLECULE
N40
   78    79     1     0     0
SMALL
bcc


@<TRIPOS>ATOM
      1 C03          0.0000     0.0000     0.0000 c3         1 N40      -0.015600
      2 C04          1.5310     0.0000     0.0000 c3         1 N40       0.002600
      3 C05          2.0390     0.0000     1.4430 c3         1 N40      -0.027400
      4 C06          3.5690    -0.0010     1.4430 c3         1 N40      -0.029400
      5 C07          4.0790    -0.0010     2.8870 c3         1 N40      -0.028400
      6 C08          5.6090    -0.0020     2.8880 c3         1 N40      -0.029400
      7 C09          6.1180    -0.0020     4.3300 c3         1 N40      -0.028400
      8 C10          7.6480    -0.0030     4.3310 c3         1 N40       0.006900
      9 C12         -2.9330     1.1340    -0.9350 c3         1 N40       0.117500
     10 C13         -4.2540     1.4060    -1.6590 c3         1 N40      -0.029400
     11 C14         -3.9670     1.8240    -3.1020 c3         1 N40      -0.052700
     12 C15         -3.2260     3.1630    -3.1070 c3         1 N40      -0.028400
     13 C16         -2.9400     3.5820    -4.5510 c3         1 N40      -0.019900
     14 C17         -4.2590     3.7270    -5.3110 c3         1 N40      -0.026400
     15 C18         -5.0010     2.3880    -5.3060 c3         1 N40      -0.019900
     16 C19         -5.2870     1.9690    -3.8620 c3         1 N40      -0.028400
     17 C20         -3.2100     0.8120     0.5100 c          1 N40       0.541100
     18 C22         -4.1010     1.4000     2.7010 c3         1 N40       0.001700
     19 C23         -4.1280     2.6940     3.5170 c3         1 N40      -0.021400
     20 C24         -2.7450     3.3480     3.4810 c3         1 N40      -0.143700
     21 C25         -2.7490     4.6390     4.2700 c          1 N40       0.622500
     22 C27         -0.8110     3.5190     4.8880 c3         1 N40       0.039000
     23 C28         -1.7090     2.4610     4.2110 c3         1 N40      -0.033400
     24 C30         -5.4550     0.6960     2.8160 c3         1 N40       0.206400
     25 N11         -2.2540     0.0010    -1.5670 n7         1 N40      -0.552100
     26 N21         -3.8320     1.7140     1.2960 ns         1 N40      -0.174900
     27 N26         -1.6580     4.7060     5.0520 ns         1 N40      -0.199900
     28 O01         -0.3060     1.2370    -2.3450 o          1 N40      -0.586300
     29 O29         -3.6110     5.4900     4.2050 o          1 N40      -0.661500
     30 O32         -2.8730    -0.2600     0.9680 o          1 N40      -0.666100
     31 O33         -0.3080    -1.2360    -2.3450 o          1 N40      -0.586300
     32 S02         -0.6040     0.0010    -1.7110 s6         1 N40       0.951900
     33 H1          -0.3610    -0.8850     0.5100 h1         1 N40       0.074200
     34 H2          -0.3610     0.8840     0.5110 h1         1 N40       0.074200
     35 H3           1.8920    -0.8850    -0.5100 hc         1 N40       0.028200
     36 H4           1.8920     0.8850    -0.5100 hc         1 N40       0.028200
     37 H5           1.6780     0.8850     1.9530 hc         1 N40       0.014200
     38 H6           1.6770    -0.8840     1.9540 hc         1 N40       0.014200
     39 H7           3.9300    -0.8860     0.9330 hc         1 N40       0.017200
     40 H8           3.9310     0.8830     0.9320 hc         1 N40       0.017200
     41 H9           3.7170    -0.8850     3.3970 hc         1 N40       0.012700
     42 H10          3.7180     0.8840     3.3970 hc         1 N40       0.012700
     43 H11          5.9700     0.8830     2.3770 hc         1 N40       0.015700
     44 H12          5.9700    -0.8860     2.3770 hc         1 N40       0.015700
     45 H13          5.7560    -0.8860     4.8400 hc         1 N40       0.011200
     46 H14          5.7570     0.8830     4.8400 hc         1 N40       0.011200
     47 H15          8.0090    -0.8870     3.8200 hc         1 N40       0.000700
     48 H16          8.0090     0.8820     3.8210 hc         1 N40       0.000700
     49 H17          8.0080    -0.0030     5.3520 hc         1 N40       0.000700
     50 H18         -2.3010     2.0130    -0.9940 h1         1 N40       0.063700
     51 H19         -4.7870     2.2010    -1.1520 hc         1 N40       0.024700
     52 H20         -4.8580     0.5070    -1.6570 hc         1 N40       0.024700
     53 H21         -3.3550     1.0730    -3.5860 hc         1 N40       0.044700
     54 H22         -2.2900     3.0580    -2.5710 hc         1 N40       0.017700
     55 H23         -3.8400     3.9160    -2.6290 hc         1 N40       0.017700
     56 H24         -2.3290     2.8260    -5.0310 hc         1 N40       0.015450
     57 H25         -2.4180     4.5310    -4.5540 hc         1 N40       0.015450
     58 H26         -4.0550     4.0210    -6.3340 hc         1 N40       0.011700
     59 H27         -4.8710     4.4790    -4.8290 hc         1 N40       0.011700
     60 H28         -4.3870     1.6350    -5.7850 hc         1 N40       0.015450
     61 H29         -5.9360     2.4930    -5.8420 hc         1 N40       0.015450
     62 H30         -5.8970     2.7240    -3.3830 hc         1 N40       0.017700
     63 H31         -5.8090     1.0200    -3.8600 hc         1 N40       0.017700
     64 H32         -3.3220     0.7500     3.0810 h1         1 N40       0.062700
     65 H33         -4.3950     2.4680     4.5430 hc         1 N40       0.044200
     66 H34         -4.8600     3.3720     3.0940 hc         1 N40       0.044200
     67 H35         -2.4320     3.5310     2.4610 hc         1 N40       0.049700
     68 H36         -0.4770     3.1630     5.8550 h1         1 N40       0.015700
     69 H37          0.0370     3.7510     4.2540 h1         1 N40       0.015700
     70 H38         -2.1910     1.8350     4.9520 hc         1 N40       0.032200
     71 H39         -1.1410     1.8700     3.5030 hc         1 N40       0.032200
     72 H40         -5.6150     0.3850     3.8420 h1         1 N40       0.000200
     73 H41         -5.4670    -0.1730     2.1700 h1         1 N40       0.000200
     74 H42         -2.7820    -0.7930    -1.8690 hn         1 N40       0.358800
     75 H43         -4.1230     2.5920     0.9150 hn         1 N40       0.189500
     76 H44         -1.3430     5.5540     5.4800 hn         1 N40       0.192500
     77 H45         -7.3300     1.2370     2.6710 ho         1 N40       0.397000
     78 O31         -6.4940     1.5960     2.4240 oh         1 N40      -0.598800
@<TRIPOS>BOND
     1     1     2 1   
     2     1    32 1   
     3     1    33 1   
     4     1    34 1   
     5     2     3 1   
     6     2    35 1   
     7     2    36 1   
     8     3     4 1   
     9     3    37 1   
    10     3    38 1   
    11     4     5 1   
    12     4    39 1   
    13     4    40 1   
    14     5     6 1   
    15     5    41 1   
    16     5    42 1   
    17     6     7 1   
    18     6    43 1   
    19     6    44 1   
    20     7     8 1   
    21     7    45 1   
    22     7    46 1   
    23     8    47 1   
    24     8    48 1   
    25     8    49 1   
    26     9    10 1   
    27     9    17 1   
    28     9    25 1   
    29     9    50 1   
    30    10    11 1   
    31    10    51 1   
    32    10    52 1   
    33    11    12 1   
    34    11    16 1   
    35    11    53 1   
    36    12    13 1   
    37    12    54 1   
    38    12    55 1   
    39    13    14 1   
    40    13    56 1   
    41    13    57 1   
    42    14    15 1   
    43    14    58 1   
    44    14    59 1   
    45    15    16 1   
    46    15    60 1   
    47    15    61 1   
    48    16    62 1   
    49    16    63 1   
    50    17    26 1   
    51    17    30 2   
    52    18    19 1   
    53    18    24 1   
    54    18    26 1   
    55    18    64 1   
    56    19    20 1   
    57    19    65 1   
    58    19    66 1   
    59    20    21 1   
    60    20    23 1   
    61    20    67 1   
    62    21    27 1   
    63    21    29 2   
    64    22    23 1   
    65    22    27 1   
    66    22    68 1   
    67    22    69 1   
    68    23    70 1   
    69    23    71 1   
    70    24    72 1   
    71    24    73 1   
    72    24    78 1   
    73    25    32 1   
    74    25    74 1   
    75    26    75 1   
    76    27    76 1   
    77    28    32 2   
    78    31    32 2   
    79    77    78 1   
@<TRIPOS>SUBSTRUCTURE
     1 N40         1 TEMP              0 ****  ****    0 ROOT
