@<TRIPOS>MOLECULE
molecule
   78    79     1     0     0
SMALL
bcc


@<TRIPOS>ATOM
      1 C03          0.0000     0.0000     0.0000 c3         1 N40      -0.221600
      2 C04          1.5310     0.0000     0.0000 c3         1 N40      -0.063400
      3 C05          2.0390     0.0000     1.4430 c3         1 N40      -0.071400
      4 C06          3.5690    -0.0010     1.4430 c3         1 N40      -0.084400
      5 C07          4.0790    -0.0010     2.8870 c3         1 N40      -0.081400
      6 C08          5.6090    -0.0020     2.8880 c3         1 N40      -0.081400
      7 C09          6.1180    -0.0020     4.3300 c3         1 N40      -0.084400
      8 C10          7.6480    -0.0030     4.3310 c3         1 N40      -0.092100
      9 C12         -2.9330     1.1340    -0.9350 c3         1 N40       0.166500
     10 C13         -4.2540     1.4060    -1.6590 c3         1 N40      -0.077400
     11 C14         -3.9670     1.8240    -3.1020 c3         1 N40      -0.068700
     12 C15         -3.2260     3.1630    -3.1070 c3         1 N40      -0.077400
     13 C16         -2.9400     3.5820    -4.5510 c3         1 N40      -0.076400
     14 C17         -4.2590     3.7270    -5.3110 c3         1 N40      -0.081400
     15 C18         -5.0010     2.3880    -5.3060 c3         1 N40      -0.076400
     16 C19         -5.2870     1.9690    -3.8620 c3         1 N40      -0.077400
     17 C20         -3.2100     0.8120     0.5100 c          1 N40       0.628100
     18 C22         -4.1010     1.4000     2.7010 c3         1 N40       0.116700
     19 C23         -4.1280     2.6940     3.5170 c3         1 N40      -0.075400
     20 C24         -2.7450     3.3480     3.4810 c3         1 N40      -0.164700
     21 C25         -2.7490     4.6390     4.2700 c          1 N40       0.700500
     22 C27         -0.8110     3.5190     4.8880 c3         1 N40       0.089000
     23 C28         -1.7090     2.4610     4.2110 c3         1 N40      -0.094400
     24 C30         -5.4550     0.6960     2.8160 c3         1 N40       0.123400
     25 N11         -2.2540     0.0010    -1.5670 n7         1 N40      -0.882100
     26 N21         -3.8320     1.7140     1.2960 ns         1 N40      -0.570900
     27 N26         -1.6580     4.7060     5.0520 ns         1 N40      -0.581900
     28 O01         -0.3060     1.2370    -2.3450 o          1 N40      -0.631800
     29 O29         -3.6110     5.4900     4.2050 o          1 N40      -0.624500
     30 O32         -2.8730    -0.2600     0.9680 o          1 N40      -0.620100
     31 O33         -0.3080    -1.2360    -2.3450 o          1 N40      -0.631800
     32 S02         -0.6040     0.0010    -1.7110 s6         1 N40       1.326900
     33 H1          -0.3610    -0.8850     0.5100 h1         1 N40       0.103200
     34 H2          -0.3610     0.8840     0.5110 h1         1 N40       0.103200
     35 H3           1.8920    -0.8850    -0.5100 hc         1 N40       0.054700
     36 H4           1.8920     0.8850    -0.5100 hc         1 N40       0.054700
     37 H5           1.6780     0.8850     1.9530 hc         1 N40       0.043200
     38 H6           1.6770    -0.8840     1.9540 hc         1 N40       0.043200
     39 H7           3.9300    -0.8860     0.9330 hc         1 N40       0.044200
     40 H8           3.9310     0.8830     0.9320 hc         1 N40       0.044200
     41 H9           3.7170    -0.8850     3.3970 hc         1 N40       0.040200
     42 H10          3.7180     0.8840     3.3970 hc         1 N40       0.040200
     43 H11          5.9700     0.8830     2.3770 hc         1 N40       0.042700
     44 H12          5.9700    -0.8860     2.3770 hc         1 N40       0.042700
     45 H13          5.7560    -0.8860     4.8400 hc         1 N40       0.039200
     46 H14          5.7570     0.8830     4.8400 hc         1 N40       0.039200
     47 H15          8.0090    -0.8870     3.8200 hc         1 N40       0.033033
     48 H16          8.0090     0.8820     3.8210 hc         1 N40       0.033033
     49 H17          8.0080    -0.0030     5.3520 hc         1 N40       0.033033
     50 H18         -2.3010     2.0130    -0.9940 h1         1 N40       0.088700
     51 H19         -4.7870     2.2010    -1.1520 hc         1 N40       0.054700
     52 H20         -4.8580     0.5070    -1.6570 hc         1 N40       0.054700
     53 H21         -3.3550     1.0730    -3.5860 hc         1 N40       0.064700
     54 H22         -2.2900     3.0580    -2.5710 hc         1 N40       0.042450
     55 H23         -3.8400     3.9160    -2.6290 hc         1 N40       0.042450
     56 H24         -2.3290     2.8260    -5.0310 hc         1 N40       0.043950
     57 H25         -2.4180     4.5310    -4.5540 hc         1 N40       0.043950
     58 H26         -4.0550     4.0210    -6.3340 hc         1 N40       0.040200
     59 H27         -4.8710     4.4790    -4.8290 hc         1 N40       0.040200
     60 H28         -4.3870     1.6350    -5.7850 hc         1 N40       0.043950
     61 H29         -5.9360     2.4930    -5.8420 hc         1 N40       0.043950
     62 H30         -5.8970     2.7240    -3.3830 hc         1 N40       0.042450
     63 H31         -5.8090     1.0200    -3.8600 hc         1 N40       0.042450
     64 H32         -3.3220     0.7500     3.0810 h1         1 N40       0.084700
     65 H33         -4.3950     2.4680     4.5430 hc         1 N40       0.073200
     66 H34         -4.8600     3.3720     3.0940 hc         1 N40       0.073200
     67 H35         -2.4320     3.5310     2.4610 hc         1 N40       0.081700
     68 H36         -0.4770     3.1630     5.8550 h1         1 N40       0.046200
     69 H37          0.0370     3.7510     4.2540 h1         1 N40       0.046200
     70 H38         -2.1910     1.8350     4.9520 hc         1 N40       0.062200
     71 H39         -1.1410     1.8700     3.5030 hc         1 N40       0.062200
     72 H40         -5.6150     0.3850     3.8420 h1         1 N40       0.035200
     73 H41         -5.4670    -0.1730     2.1700 h1         1 N40       0.035200
     74 H42         -2.7820    -0.7930    -1.8690 hn         1 N40       0.464800
     75 H43         -4.1230     2.5920     0.9150 hn         1 N40       0.327500
     76 H44         -1.3430     5.5540     5.4800 hn         1 N40       0.335500
     77 H45         -7.3300     1.2370     2.6710 ho         1 N40       0.407000
     78 O31         -6.4940     1.5960     2.4240 oh         1 N40      -0.614800
@<TRIPOS>BOND
     1    29    21 2
     2    27    21 1
     3    27    22 1
     4    21    20 1
     5    22    23 1
     6    20    19 1
     7    20    23 1
     8    19    18 1
     9    18    24 1
    10    18    26 1
    11     7     8 1
    12     7     6 1
    13    24    78 1
    14     5     6 1
    15     5     4 1
    16    28    32 2
    17    26    17 1
    18     4     3 1
    19    31    32 2
    20     3     2 1
    21     2     1 1
    22    30    17 2
    23    17     9 1
    24    32     1 1
    25    32    25 1
    26     9    25 1
    27     9    10 1
    28    10    11 1
    29    12    11 1
    30    12    13 1
    31    11    16 1
    32    13    14 1
    33    16    15 1
    34    14    15 1
    35     1    33 1
    36     1    34 1
    37     2    35 1
    38     2    36 1
    39     3    37 1
    40     3    38 1
    41     4    39 1
    42     4    40 1
    43     5    41 1
    44     5    42 1
    45     6    43 1
    46     6    44 1
    47     7    45 1
    48     7    46 1
    49     8    47 1
    50     8    48 1
    51     8    49 1
    52     9    50 1
    53    10    51 1
    54    10    52 1
    55    11    53 1
    56    12    54 1
    57    12    55 1
    58    13    56 1
    59    13    57 1
    60    14    58 1
    61    14    59 1
    62    15    60 1
    63    15    61 1
    64    16    62 1
    65    16    63 1
    66    18    64 1
    67    19    65 1
    68    19    66 1
    69    20    67 1
    70    22    68 1
    71    22    69 1
    72    23    70 1
    73    23    71 1
    74    24    72 1
    75    24    73 1
    76    25    74 1
    77    26    75 1
    78    27    76 1
    79    78    77 1
@<TRIPOS>SUBSTRUCTURE
     1 N40         1 TEMP              0 ****  ****    0 ROOT
