@<TRIPOS>MOLECULE
N41
   50    53     1     0     0
SMALL
bcc


@<TRIPOS>ATOM
      1 C2           0.0000     0.0000     0.0000 ca         1 N41       0.707900
      2 C10          3.7690     0.0150    -0.2450 c3         1 N41       0.174400
      3 C11          5.2960     0.0210    -0.3270 c3         1 N41       0.026300
      4 C12          5.7280     0.0310    -1.7950 c3         1 N41      -0.145400
      5 C13          7.2550     0.0380    -1.8780 c3         1 N41       0.007600
      6 C14          7.7990     1.2840    -1.1770 c3         1 N41      -0.026400
      7 C15          7.3680     1.2730     0.2910 c3         1 N41       0.007600
      8 C16          5.8410     1.2670     0.3720 c3         1 N41      -0.145400
      9 C19          1.9030     1.0460    -3.6120 ca         1 N41      -0.004500
     10 C20          1.4680     0.3880    -4.7670 ca         1 N41      -0.303600
     11 C21          0.3180    -0.4040    -4.7230 ca         1 N41      -0.004500
     12 C22         -0.3880    -0.5280    -3.5470 ca         1 N41      -0.139000
     13 N25          3.3350     1.2870    -6.0650 nz         1 N41       0.200600
     14 N1           1.3260     0.0000     0.0000 nb         1 N41      -0.768000
     15 C6           2.0110     0.0000     1.1350 ca         1 N41       0.742600
     16 O6           3.3660     0.0060     1.1250 os         1 N41      -0.362100
     17 C5           1.3050    -0.0100     2.3480 ca         1 N41      -0.214200
     18 N7           1.6580    -0.0160     3.6570 nc         1 N41      -0.452100
     19 N9          -0.5230    -0.0240     3.6050 na         1 N41       0.185000
     20 C4          -0.1000    -0.0150     2.2990 ca         1 N41       0.254800
     21 N3          -0.7060    -0.0100     1.1180 nb         1 N41      -0.662000
     22 N2          -0.6690     0.0050    -1.2150 nu         1 N41      -0.257300
     23 C17          0.0450     0.1330    -2.4020 ca         1 N41       0.127600
     24 C18          1.1910     0.9230    -2.4410 ca         1 N41      -0.139000
     25 C8           0.5890    -0.0250     4.3960 cd         1 N41       0.241700
     26 O24          1.8480    -0.0520    -7.0260 o          1 N41      -0.456100
     27 H101         3.3780     0.9020    -0.7300 h1         1 N41       0.020200
     28 H102         3.3830    -0.8670    -0.7410 h1         1 N41       0.020200
     29 H11          5.6910    -0.8650     0.1560 hc         1 N41       0.025700
     30 H121         5.9060    -0.8590    -1.2040 hc         1 N41       0.045700
     31 H122         5.1090    -0.3370    -2.6050 hc         1 N41       0.045700
     32 H131         7.6460    -0.8480    -1.3920 hc         1 N41       0.012700
     33 H132         7.5590     0.0490    -2.9180 hc         1 N41       0.012700
     34 H141         7.4050     2.1690    -1.6610 hc         1 N41       0.015700
     35 H142         8.8810     1.2850    -1.2350 hc         1 N41       0.015700
     36 H151         7.7580     0.3850     0.7740 hc         1 N41       0.012700
     37 H152         7.7520     2.1570     0.7850 hc         1 N41       0.012700
     38 H161         5.5360     1.2580     1.4120 hc         1 N41       0.045700
     39 H162         5.4520     2.1520    -0.1160 hc         1 N41       0.045700
     40 H19          2.7650     1.7010    -3.6550 ha         1 N41       0.106500
     41 H21         -0.0390    -0.8900    -5.6230 ha         1 N41       0.106500
     42 H22         -1.2830    -1.1190    -3.6950 ha         1 N41       0.136000
     43 H251         3.1120     2.2160    -5.7630 hn         1 N41       0.244133
     44 H252         3.6980     1.3170    -6.9970 hn         1 N41       0.244133
     45 H9          -1.4730    -0.0300     3.9200 hn         1 N41       0.142700
     46 H2          -1.6670    -0.0690    -1.2360 hn         1 N41       0.306800
     47 H18          1.0420     1.9600    -2.1670 ha         1 N41       0.136000
     48 H8           0.5820    -0.0330     5.4790 h5         1 N41       0.043800
     49 H253         4.0320     0.8990    -5.4600 hn         1 N41       0.244133
     50 C23          2.2250     0.5240    -6.0250 c          1 N41       0.359700
@<TRIPOS>BOND
     1     1    14 ar  
     2     1    21 ar  
     3     1    22 1   
     4     2     3 1   
     5     2    16 1   
     6     2    27 1   
     7     2    28 1   
     8     3     4 1   
     9     3     8 1   
    10     3    29 1   
    11     4     5 1   
    12     4    30 1   
    13     4    31 1   
    14     5     6 1   
    15     5    32 1   
    16     5    33 1   
    17     6     7 1   
    18     6    34 1   
    19     6    35 1   
    20     7     8 1   
    21     7    36 1   
    22     7    37 1   
    23     8    38 1   
    24     8    39 1   
    25     9    10 ar  
    26     9    24 ar  
    27     9    40 1   
    28    10    11 ar  
    29    10    50 1   
    30    11    12 ar  
    31    11    41 1   
    32    12    23 ar  
    33    12    42 1   
    34    13    43 1   
    35    13    44 1   
    36    13    49 1   
    37    13    50 1   
    38    14    15 ar  
    39    15    16 1   
    40    15    17 ar  
    41    17    18 1   
    42    17    20 ar  
    43    18    25 2   
    44    19    20 1   
    45    19    25 1   
    46    19    45 1   
    47    20    21 ar  
    48    22    23 1   
    49    22    46 1   
    50    23    24 ar  
    51    24    47 1   
    52    25    48 1   
    53    26    50 2   
@<TRIPOS>SUBSTRUCTURE
     1 N41         1 TEMP              0 ****  ****    0 ROOT
