@<TRIPOS>MOLECULE
N42
   89    93     1     0     0
SMALL
bcc


@<TRIPOS>ATOM
      1 CBA          0.0000     0.0000     0.0000 c2         1 N42      -0.056000
      2 CBB          1.3300     0.0000     0.0000 ce         1 N42      -0.244200
      3 CBK          2.0650     0.0000     1.2740 c          1 N42       0.572300
      4 OAH          1.4570     0.0000     2.3260 o          1 N42      -0.638100
      5 NBF          3.4130     0.0000     1.2740 ns         1 N42      -0.007100
      6 CBS          4.1080     0.1310     2.4720 ca         1 N42       0.004600
      7 CAV          3.5140     0.7520     3.5590 ca         1 N42      -0.197000
      8 CBV          5.4160    -0.3720     2.5890 ca         1 N42      -0.246600
      9 CBM          6.0560    -1.0400     1.4430 c          1 N42       0.623700
     10 OAJ          5.4990    -1.9710     0.8930 o          1 N42      -0.654100
     11 NBZ          7.2580    -0.6180     1.0050 n          1 N42      -0.154800
     12 CBC          7.9720    -1.3430    -0.0590 c3         1 N42       0.002000
     13 CAY          8.3930    -0.3340    -1.1330 c3         1 N42       0.198900
     14 OBI          9.1000     0.7450    -0.5150 os         1 N42      -0.406600
     15 CAZ          8.3200     1.4960     0.4200 c3         1 N42       0.198900
     16 CBD          7.8920     0.5830     1.5690 c3         1 N42       0.002000
     17 CAU          6.1070    -0.2370     3.7980 ca         1 N42      -0.020000
     18 CAO          5.5130     0.3820     4.8600 ca         1 N42      -0.179000
     19 CBO          4.2130     0.8720     4.7540 ca         1 N42       0.091600
     20 NBH          3.6190     1.5010     5.8420 nu         1 N42      -0.196400
     21 CBU          4.0530     1.2100     7.1410 cc         1 N42      -0.128200
     22 CAW          4.4010     2.2180     7.9950 cd         1 N42      -0.060000
     23 CBX          4.1300    -0.1300     7.5860 c          1 N42       0.571700
     24 OAK          3.8170    -1.0390     6.8340 o          1 N42      -0.679500
     25 NCA          4.5470    -0.4060     8.8350 n          1 N42       0.128000
     26 CAB          4.6220    -1.8000     9.2800 c3         1 N42       0.048300
     27 CAX          4.9020     0.5890     9.6870 cc         1 N42      -0.152400
     28 CBQ          4.8360     1.8950     9.2990 cd         1 N42      -0.102200
     29 CBW          5.2260     2.9730    10.2420 ca         1 N42      -0.021800
     30 CBN          4.3810     3.3210    11.2910 ca         1 N42      -0.108300
     31 CAA          3.0670     2.6060    11.4740 c3         1 N42       0.051200
     32 CAR          6.4420     3.6340    10.0820 ca         1 N42      -0.100000
     33 CAM          6.8040     4.6360    10.9600 ca         1 N42      -0.088000
     34 CAN          5.9640     4.9870    12.0000 ca         1 N42      -0.095000
     35 CBR          4.7510     4.3290    12.1700 ca         1 N42      -0.084400
     36 NBG          3.9050     4.6830    13.2260 ns         1 N42      -0.040100
     37 CBL          3.8370     5.9660    13.6340 c          1 N42       0.587700
     38 OAI          4.4330     6.8310    13.0210 o          1 N42      -0.636100
     39 CBP          3.0390     6.3220    14.8250 ca         1 N42      -0.171600
     40 CAP          2.9660     7.6490    15.2500 ca         1 N42      -0.054000
     41 CAS          2.2180     7.9740    16.3630 ca         1 N42      -0.118000
     42 CBT          1.5410     6.9870    17.0570 ca         1 N42      -0.048300
     43 CCB          0.7310     7.3480    18.2760 c3         1 N42      -0.019700
     44 CAD         -0.7300     6.9540    18.0530 c3         1 N42       0.005567
     45 CAE          1.2800     6.6030    19.4930 c3         1 N42       0.005567
     46 CAC          0.8210     8.8560    18.5190 c3         1 N42       0.005567
     47 CAT          1.6080     5.6700    16.6420 ca         1 N42      -0.118000
     48 CAQ          2.3490     5.3310    15.5270 ca         1 N42      -0.054000
     49 H1          -0.5420     0.0000     0.9380 ha         1 N42       0.091000
     50 H2          -0.5420     0.0000    -0.9380 ha         1 N42       0.091000
     51 H4           1.8710     0.0000    -0.9380 ha         1 N42       0.105000
     52 H6           3.9130    -0.0580     0.4090 hn         1 N42       0.175500
     53 H7           2.5030     1.1340     3.4800 ha         1 N42       0.162000
     54 H8           8.8520    -1.8220     0.3540 h1         1 N42       0.041200
     55 H9           7.3160    -2.0860    -0.4960 h1         1 N42       0.041200
     56 H10          7.5120     0.0510    -1.6320 h1         1 N42       0.013700
     57 H11          9.0390    -0.8220    -1.8530 h1         1 N42       0.013700
     58 H12          7.4410     1.8870    -0.0770 h1         1 N42       0.013700
     59 H13          8.9150     2.3130     0.8100 h1         1 N42       0.013700
     60 H14          7.1840     1.1040     2.2020 h1         1 N42       0.041200
     61 H15          8.7620     0.2960     2.1480 h1         1 N42       0.041200
     62 H16          7.1160    -0.6200     3.8890 ha         1 N42       0.102000
     63 H17          6.0520     0.4820     5.7950 ha         1 N42       0.112000
     64 H18          2.8960     2.1780     5.6960 hn         1 N42       0.285800
     65 H19          4.3450     3.2520     7.6760 ha         1 N42       0.120000
     66 H20          5.0160    -1.8370    10.2880 h1         1 N42       0.026033
     67 H21          5.2740    -2.3560     8.6170 h1         1 N42       0.026033
     68 H22          3.6310    -2.2380     9.2630 h1         1 N42       0.026033
     69 H23          5.2350     0.3440    10.6880 h4         1 N42       0.134000
     70 H24          2.7820     2.1310    10.5430 hc         1 N42       0.011700
     71 H25          3.1710     1.8520    12.2460 hc         1 N42       0.011700
     72 H26          2.3050     3.3180    11.7650 hc         1 N42       0.011700
     73 H27          7.1030     3.3620     9.2680 ha         1 N42       0.108000
     74 H28          7.7490     5.1500    10.8320 ha         1 N42       0.106000
     75 H29          6.2530     5.7740    12.6860 ha         1 N42       0.139000
     76 H30          3.3870     3.9770    13.7100 hn         1 N42       0.176500
     77 H31          3.4950     8.4230    14.7070 ha         1 N42       0.113000
     78 H32          2.1610     9.0040    16.6940 ha         1 N42       0.119000
     79 H33         -0.8140     5.8740    18.0320 hc         1 N42       0.008367
     80 H34         -1.0740     7.3610    17.1100 hc         1 N42       0.008367
     81 H35         -1.3370     7.3480    18.8590 hc         1 N42       0.008367
     82 H36          2.3490     6.7650    19.5640 hc         1 N42       0.008367
     83 H37          0.7990     6.9720    20.3910 hc         1 N42       0.008367
     84 H38          1.0830     5.5430    19.3870 hc         1 N42       0.008367
     85 H39          0.4330     9.3850    17.6570 hc         1 N42       0.008367
     86 H40          1.8550     9.1350    18.6790 hc         1 N42       0.008367
     87 H41          0.2380     9.1160    19.3940 hc         1 N42       0.008367
     88 H42          1.0740     4.9020    17.1890 ha         1 N42       0.119000
     89 H43          2.4010     4.2990    15.2020 ha         1 N42       0.113000
@<TRIPOS>BOND
     1     1     2 2   
     2     1    49 1   
     3     1    50 1   
     4     2     3 1   
     5     2    51 1   
     6     3     4 2   
     7     3     5 1   
     8     5     6 1   
     9     5    52 1   
    10     6     7 ar  
    11     6     8 ar  
    12     7    19 ar  
    13     7    53 1   
    14     8     9 1   
    15     8    17 ar  
    16     9    10 2   
    17     9    11 1   
    18    11    12 1   
    19    11    16 1   
    20    12    13 1   
    21    12    54 1   
    22    12    55 1   
    23    13    14 1   
    24    13    56 1   
    25    13    57 1   
    26    14    15 1   
    27    15    16 1   
    28    15    58 1   
    29    15    59 1   
    30    16    60 1   
    31    16    61 1   
    32    17    18 ar  
    33    17    62 1   
    34    18    19 ar  
    35    18    63 1   
    36    19    20 1   
    37    20    21 1   
    38    20    64 1   
    39    21    22 2   
    40    21    23 1   
    41    22    28 1   
    42    22    65 1   
    43    23    24 2   
    44    23    25 1   
    45    25    26 1   
    46    25    27 1   
    47    26    66 1   
    48    26    67 1   
    49    26    68 1   
    50    27    28 2   
    51    27    69 1   
    52    28    29 1   
    53    29    30 ar  
    54    29    32 ar  
    55    30    31 1   
    56    30    35 ar  
    57    31    70 1   
    58    31    71 1   
    59    31    72 1   
    60    32    33 ar  
    61    32    73 1   
    62    33    34 ar  
    63    33    74 1   
    64    34    35 ar  
    65    34    75 1   
    66    35    36 1   
    67    36    37 1   
    68    36    76 1   
    69    37    38 2   
    70    37    39 1   
    71    39    40 ar  
    72    39    48 ar  
    73    40    41 ar  
    74    40    77 1   
    75    41    42 ar  
    76    41    78 1   
    77    42    43 1   
    78    42    47 ar  
    79    43    44 1   
    80    43    45 1   
    81    43    46 1   
    82    44    79 1   
    83    44    80 1   
    84    44    81 1   
    85    45    82 1   
    86    45    83 1   
    87    45    84 1   
    88    46    85 1   
    89    46    86 1   
    90    46    87 1   
    91    47    48 ar  
    92    47    88 1   
    93    48    89 1   
@<TRIPOS>SUBSTRUCTURE
     1 N42         1 TEMP              0 ****  ****    0 ROOT
