@<TRIPOS>MOLECULE
molecule
   89    93     1     0     0
SMALL
bcc


@<TRIPOS>ATOM
      1 CBA          0.0000     0.0000     0.0000 c2         1 N42      -0.128000
      2 CBB          1.3300     0.0000     0.0000 ce         1 N42      -0.250200
      3 CBK          2.0650     0.0000     1.2740 c          1 N42       0.666300
      4 OAH          1.4570     0.0000     2.3260 o          1 N42      -0.596100
      5 NBF          3.4130     0.0000     1.2740 ns         1 N42      -0.457100
      6 CBS          4.1080     0.1310     2.4720 ca         1 N42       0.143600
      7 CAV          3.5140     0.7520     3.5590 ca         1 N42      -0.210000
      8 CBV          5.4160    -0.3720     2.5890 ca         1 N42      -0.234600
      9 CBM          6.0560    -1.0400     1.4430 c          1 N42       0.683700
     10 OAJ          5.4990    -1.9710     0.8930 o          1 N42      -0.609100
     11 NBZ          7.2580    -0.6180     1.0050 n          1 N42      -0.494800
     12 CBC          7.9720    -1.3430    -0.0590 c3         1 N42       0.066000
     13 CAY          8.3930    -0.3340    -1.1330 c3         1 N42       0.120400
     14 OBI          9.1000     0.7450    -0.5150 os         1 N42      -0.421600
     15 CAZ          8.3200     1.4960     0.4200 c3         1 N42       0.120400
     16 CBD          7.8920     0.5830     1.5690 c3         1 N42       0.066000
     17 CAU          6.1070    -0.2370     3.7980 ca         1 N42      -0.050000
     18 CAO          5.5130     0.3820     4.8600 ca         1 N42      -0.201000
     19 CBO          4.2130     0.8720     4.7540 ca         1 N42       0.239600
     20 NBH          3.6190     1.5010     5.8420 nu         1 N42      -0.664400
     21 CBU          4.0530     1.2100     7.1410 cc         1 N42       0.023800
     22 CAW          4.4010     2.2180     7.9950 cd         1 N42      -0.082000
     23 CBX          4.1300    -0.1300     7.5860 c          1 N42       0.667700
     24 OAK          3.8170    -1.0390     6.8340 o          1 N42      -0.626500
     25 NCA          4.5470    -0.4060     8.8350 n          1 N42      -0.315000
     26 CAB          4.6220    -1.8000     9.2800 c3         1 N42       0.085300
     27 CAX          4.9020     0.5890     9.6870 cc         1 N42      -0.003400
     28 CBQ          4.8360     1.8950     9.2990 cd         1 N42      -0.125200
     29 CBW          5.2260     2.9730    10.2420 ca         1 N42      -0.029800
     30 CBN          4.3810     3.3210    11.2910 ca         1 N42      -0.102300
     31 CAA          3.0670     2.6060    11.4740 c3         1 N42      -0.051800
     32 CAR          6.4420     3.6340    10.0820 ca         1 N42      -0.127000
     33 CAM          6.8040     4.6360    10.9600 ca         1 N42      -0.118000
     34 CAN          5.9640     4.9870    12.0000 ca         1 N42      -0.119000
     35 CBR          4.7510     4.3290    12.1700 ca         1 N42       0.057600
     36 NBG          3.9050     4.6830    13.2260 ns         1 N42      -0.475100
     37 CBL          3.8370     5.9660    13.6340 c          1 N42       0.675700
     38 OAI          4.4330     6.8310    13.0210 o          1 N42      -0.594100
     39 CBP          3.0390     6.3220    14.8250 ca         1 N42      -0.157600
     40 CAP          2.9660     7.6490    15.2500 ca         1 N42      -0.083000
     41 CAS          2.2180     7.9740    16.3630 ca         1 N42      -0.137500
     42 CBT          1.5410     6.9870    17.0570 ca         1 N42      -0.042300
     43 CCB          0.7310     7.3480    18.2760 c3         1 N42      -0.029700
     44 CAD         -0.7300     6.9540    18.0530 c3         1 N42      -0.081100
     45 CAE          1.2800     6.6030    19.4930 c3         1 N42      -0.081100
     46 CAC          0.8210     8.8560    18.5190 c3         1 N42      -0.081100
     47 CAT          1.6080     5.6700    16.6420 ca         1 N42      -0.137500
     48 CAQ          2.3490     5.3310    15.5270 ca         1 N42      -0.083000
     49 H1          -0.5420     0.0000    -0.9380 ha         1 N42       0.130000
     50 H2          -0.5420     0.0000     0.9380 ha         1 N42       0.130000
     51 H4           1.8710     0.0000    -0.9380 ha         1 N42       0.129000
     52 H6           3.9130    -0.0560     0.4090 hn         1 N42       0.334500
     53 H7           2.5030     1.1340     3.4800 ha         1 N42       0.176000
     54 H8           8.8520    -1.8220     0.3540 h1         1 N42       0.066450
     55 H9           7.3160    -2.0860    -0.4960 h1         1 N42       0.066450
     56 H10          7.5120     0.0510    -1.6320 h1         1 N42       0.053450
     57 H11          9.0390    -0.8220    -1.8530 h1         1 N42       0.053450
     58 H12          8.9150     2.3130     0.8100 h1         1 N42       0.053450
     59 H13          7.4410     1.8870    -0.0770 h1         1 N42       0.053450
     60 H14          8.7620     0.2960     2.1480 h1         1 N42       0.066450
     61 H15          7.1840     1.1040     2.2020 h1         1 N42       0.066450
     62 H16          7.1160    -0.6200     3.8890 ha         1 N42       0.134000
     63 H17          6.0520     0.4820     5.7950 ha         1 N42       0.134000
     64 H18          2.8950     2.1760     5.6960 hn         1 N42       0.453800
     65 H19          4.3450     3.2520     7.6760 ha         1 N42       0.149000
     66 H20          5.0160    -1.8370    10.2880 h1         1 N42       0.057367
     67 H21          5.2740    -2.3560     8.6170 h1         1 N42       0.057367
     68 H22          3.6310    -2.2380     9.2630 h1         1 N42       0.057367
     69 H23          5.2350     0.3440    10.6880 h4         1 N42       0.160000
     70 H24          2.7720     2.1480    10.5380 hc         1 N42       0.045367
     71 H25          2.3090     3.3150    11.7840 hc         1 N42       0.045367
     72 H26          3.1760     1.8390    12.2320 hc         1 N42       0.045367
     73 H27          7.1030     3.3620     9.2680 ha         1 N42       0.135000
     74 H28          7.7490     5.1500    10.8320 ha         1 N42       0.136000
     75 H29          6.2530     5.7740    12.6860 ha         1 N42       0.161000
     76 H30          3.3860     3.9770    13.7100 hn         1 N42       0.326500
     77 H31          3.4950     8.4230    14.7070 ha         1 N42       0.139500
     78 H32          2.1610     9.0040    16.6940 ha         1 N42       0.140500
     79 H33         -0.8170     5.8750    18.0540 hc         1 N42       0.038700
     80 H34         -1.0670     7.3430    17.1000 hc         1 N42       0.038700
     81 H35         -1.3400     7.3670    18.8470 hc         1 N42       0.038700
     82 H36          0.8150     6.9880    20.3930 hc         1 N42       0.038700
     83 H37          2.3530     6.7470    19.5510 hc         1 N42       0.038700
     84 H38          1.0630     5.5460    19.3980 hc         1 N42       0.038700
     85 H39          0.2370     9.1160    19.3940 hc         1 N42       0.038700
     86 H40          0.4340     9.3850    17.6560 hc         1 N42       0.038700
     87 H41          1.8550     9.1350    18.6790 hc         1 N42       0.038700
     88 H42          1.0740     4.9020    17.1890 ha         1 N42       0.140500
     89 H43          2.4010     4.2990    15.2020 ha         1 N42       0.139500
@<TRIPOS>BOND
     1    44    43 1
     2    26    25 1
     3    46    43 1
     4    43    42 1
     5    43    45 1
     6    24    23 2
     7    25    23 1
     8    25    27 1
     9    42    47 ar
    10    42    41 ar
    11    23    21 1
    12    47    48 ar
    13    41    40 ar
    14    27    28 2
    15    31    30 1
    16    48    39 ar
    17    40    39 ar
    18    39    37 1
    19    21    20 1
    20    21    22 2
    21    20    19 1
    22    28    22 1
    23    28    29 1
    24    37    38 2
    25    37    36 1
    26    30    29 ar
    27    30    35 ar
    28    36    35 1
    29    29    32 ar
    30    19    18 ar
    31    19     7 ar
    32    35    34 ar
    33    18    17 ar
    34     7     6 ar
    35    32    33 ar
    36    17     8 ar
    37    34    33 ar
    38     6     8 ar
    39     6     5 1
    40    16    15 1
    41    16    11 1
    42    15    14 1
    43     8     9 1
    44     1     2 2
    45     4     3 2
    46     5     3 1
    47     3     2 1
    48    11     9 1
    49    11    12 1
    50    14    13 1
    51     9    10 2
    52    12    13 1
    53     1    49 1
    54     1    50 1
    55     2    51 1
    56     5    52 1
    57     7    53 1
    58    12    54 1
    59    12    55 1
    60    13    56 1
    61    13    57 1
    62    15    58 1
    63    15    59 1
    64    16    60 1
    65    16    61 1
    66    17    62 1
    67    18    63 1
    68    20    64 1
    69    22    65 1
    70    26    66 1
    71    26    67 1
    72    26    68 1
    73    27    69 1
    74    31    70 1
    75    31    71 1
    76    31    72 1
    77    32    73 1
    78    33    74 1
    79    34    75 1
    80    36    76 1
    81    40    77 1
    82    41    78 1
    83    44    79 1
    84    44    80 1
    85    44    81 1
    86    45    82 1
    87    45    83 1
    88    45    84 1
    89    46    85 1
    90    46    86 1
    91    46    87 1
    92    47    88 1
    93    48    89 1
@<TRIPOS>SUBSTRUCTURE
     1 N42         1 TEMP              0 ****  ****    0 ROOT
