@<TRIPOS>MOLECULE
molecule
   59    62     1     0     0
SMALL
bcc


@<TRIPOS>ATOM
      1 C1           0.0000     0.0000     0.0000 ca         1 N44      -0.135000
      2 C2           3.0750     5.3820     5.3170 ca         1 N44      -0.152000
      3 C3           1.3830     0.0000     0.0000 ca         1 N44      -0.140000
      4 C4          -0.6910    -0.0000     1.1970 ca         1 N44      -0.140000
      5 C5           3.7560     5.6310     6.4960 ca         1 N44      -0.122000
      6 C6           2.8410     4.0840     4.9140 ca         1 N44      -0.112000
      7 C7           2.0730     0.0000     1.1980 ca         1 N44      -0.111500
      8 C8          -0.0000     0.0010     2.3940 ca         1 N44      -0.111500
      9 C9           4.2050     4.5800     7.2780 ca         1 N44      -0.144000
     10 C10          4.1030    -0.9940     8.4950 ca         1 N44      -0.157000
     11 C11          3.1420    -1.9600     8.2440 ca         1 N44      -0.137000
     12 C12          3.2920     3.0210     5.6970 ca         1 N44      -0.107600
     13 C13          5.0660    -1.3830     6.3270 ca         1 N44      -0.065600
     14 C14          1.3820     0.0010     2.3940 ca         1 N44      -0.102300
     15 C15          3.9780     3.2780     6.8850 ca         1 N44      -0.003300
     16 C16          5.0600    -0.7020     7.5500 ca         1 N44      -0.033300
     17 C17          3.1330    -2.6430     7.0390 ca         1 N44       0.004100
     18 C18          4.0940    -2.3600     6.0720 ca         1 N44       0.082100
     19 C20          7.9360     2.1860     6.3670 c2         1 N44      -0.093200
     20 C21          3.0430     1.6270     5.2700 c          1 N44       0.663700
     21 C23          2.5270    -3.6410     5.1360 c3         1 N44       0.319200
     22 C24          2.1360    -0.0000     3.6990 c3         1 N44       0.153300
     23 C25          4.4680     2.1360     7.7370 c3         1 N44       0.187100
     24 C26          6.1020     0.3510     7.8310 c3         1 N44       0.230100
     25 C27          6.7970     2.6000     7.2630 c3         1 N44       0.191000
     26 N28          2.3810     1.3810     4.1230 ns         1 N44      -0.588900
     27 N29          5.7180     1.6070     7.1740 n3         1 N44      -0.652600
     28 O30          6.8720    -0.1540     5.4960 o          1 N44      -0.824800
     29 O31          3.4380     0.7030     5.9540 o          1 N44      -0.545100
     30 O32          6.1520    -1.7380     4.2880 o          1 N44      -0.824800
     31 O33          2.3090    -3.6200     6.5590 os         1 N44      -0.355900
     32 O34          3.8750    -3.1550     4.9900 os         1 N44      -0.281900
     33 H1          -0.5420    -0.0000    -0.9380 ha         1 N44       0.118000
     34 H2           2.7260     6.2080     4.7100 ha         1 N44       0.118000
     35 H3           1.9250    -0.0000    -0.9380 ha         1 N44       0.123000
     36 H4          -1.7750    -0.0000     1.1970 ha         1 N44       0.123000
     37 H5           3.9370     6.6520     6.8090 ha         1 N44       0.117000
     38 H6           2.3080     3.8910     3.9910 ha         1 N44       0.121000
     39 H7           3.1570     0.0000     1.1980 ha         1 N44       0.143500
     40 H8          -0.5420     0.0010     3.3320 ha         1 N44       0.143500
     41 H9           4.7370     4.7820     8.1990 ha         1 N44       0.128000
     42 H10          4.1010    -0.4660     9.4410 ha         1 N44       0.109000
     43 H11          2.3930    -2.1820     8.9950 ha         1 N44       0.109000
     44 H19          9.1900     2.7070     4.7980 ha         1 N44       0.095000
     45 H19A         7.9130     3.9790     5.3210 ha         1 N44       0.095000
     46 H20          8.3950     1.2120     6.4880 ha         1 N44       0.157000
     47 H23          2.4440    -4.6510     4.7540 h2         1 N44       0.045700
     48 H23A         1.8300    -2.9790     4.6350 h2         1 N44       0.045700
     49 H24          1.5500    -0.5110     4.4540 h1         1 N44       0.075700
     50 H24A         3.0820    -0.5120     3.5690 h1         1 N44       0.075700
     51 H25          4.6470     2.4880     8.7450 h1         1 N44       0.048200
     52 H25A         3.7200     1.3520     7.7550 h1         1 N44       0.048200
     53 H26          7.0610     0.0220     7.4500 h1         1 N44       0.043200
     54 H26A         6.1740     0.5100     8.9000 h1         1 N44       0.043200
     55 H27          7.1470     2.6610     8.2870 h1         1 N44       0.015200
     56 H27A         6.4250     3.5670     6.9500 h1         1 N44       0.015200
     57 HN28         2.0580     2.1420     3.5590 hn         1 N44       0.303500
     58 C22          6.0880    -1.0740     5.3130 c          1 N44       0.916200
     59 C19          8.3720     3.0040     5.4420 c2         1 N44      -0.264000
@<TRIPOS>BOND
     1     1     3 ar
     2     1     4 ar
     3     2     5 ar
     4     2     6 ar
     5     3     7 ar
     6     4     8 ar
     7     5     9 ar
     8     6    12 ar
     9     7    14 ar
    10     8    14 ar
    11     9    15 ar
    12    10    11 ar
    13    10    16 ar
    14    11    17 ar
    15    12    15 ar
    16    12    20 1
    17    13    16 ar
    18    13    18 ar
    19    13    58 1
    20    14    22 1
    21    15    23 1
    22    16    24 1
    23    17    18 ar
    24    17    31 1
    25    18    32 1
    26    59    19 2
    27    19    25 1
    28    20    26 1
    29    20    29 2
    30    58    28 1
    31    58    30 1
    32    21    31 1
    33    21    32 1
    34    22    26 1
    35    23    27 1
    36    24    27 1
    37    25    27 1
    38     1    33 1
    39     2    34 1
    40     3    35 1
    41     4    36 1
    42     5    37 1
    43     6    38 1
    44     7    39 1
    45     8    40 1
    46     9    41 1
    47    10    42 1
    48    11    43 1
    49    59    44 1
    50    59    45 1
    51    19    46 1
    52    21    47 1
    53    21    48 1
    54    22    49 1
    55    22    50 1
    56    23    51 1
    57    23    52 1
    58    24    53 1
    59    24    54 1
    60    25    55 1
    61    25    56 1
    62    26    57 1
@<TRIPOS>SUBSTRUCTURE
     1 N44         1 TEMP              0 ****  ****    0 ROOT
