@<TRIPOS>MOLECULE
N44
   59    62     1     0     0
SMALL
bcc


@<TRIPOS>ATOM
      1 C1           0.0000     0.0000     0.0000 ca         1 N44      -0.110000
      2 C2           3.0750     5.3820     5.3170 ca         1 N44      -0.129000
      3 C3           1.3830     0.0000     0.0000 ca         1 N44      -0.112500
      4 C4          -0.6910    -0.0000     1.1970 ca         1 N44      -0.112500
      5 C5           3.7560     5.6310     6.4960 ca         1 N44      -0.096000
      6 C6           2.8410     4.0840     4.9140 ca         1 N44      -0.092000
      7 C7           2.0730     0.0000     1.1980 ca         1 N44      -0.083500
      8 C8          -0.0000     0.0010     2.3940 ca         1 N44      -0.083500
      9 C9           4.2050     4.5800     7.2780 ca         1 N44      -0.122000
     10 C10          4.1030    -0.9940     8.4950 ca         1 N44      -0.145000
     11 C11          3.1420    -1.9600     8.2440 ca         1 N44      -0.114000
     12 C12          3.2920     3.0210     5.6970 ca         1 N44      -0.114600
     13 C13          5.0660    -1.3830     6.3270 ca         1 N44      -0.065600
     14 C14          1.3820     0.0010     2.3940 ca         1 N44      -0.106300
     15 C15          3.9780     3.2780     6.8850 ca         1 N44       0.003700
     16 C16          5.0600    -0.7020     7.5500 ca         1 N44      -0.027300
     17 C17          3.1330    -2.6430     7.0390 ca         1 N44       0.000100
     18 C18          4.0940    -2.3600     6.0720 ca         1 N44       0.100100
     19 C20          7.9360     2.1860     6.3670 c2         1 N44      -0.079200
     20 C21          3.0430     1.6270     5.2700 c          1 N44       0.583700
     21 C23          2.5270    -3.6410     5.1360 c3         1 N44       0.405200
     22 C24          2.1360    -0.0000     3.6990 c3         1 N44       0.093300
     23 C25          4.4680     2.1360     7.7370 c3         1 N44       0.147100
     24 C26          6.1020     0.3510     7.8310 c3         1 N44       0.189100
     25 C27          6.7970     2.6000     7.2630 c3         1 N44       0.170000
     26 N28          2.3810     1.3810     4.1230 ns         1 N44      -0.209900
     27 N29          5.7180     1.6070     7.1740 n3         1 N44      -0.443600
     28 O30          6.8720    -0.1540     5.4960 o          1 N44      -0.880300
     29 O31          3.4380     0.7030     5.9540 o          1 N44      -0.585100
     30 O32          6.1520    -1.7380     4.2880 o          1 N44      -0.880300
     31 O33          2.3090    -3.6200     6.5590 os         1 N44      -0.338900
     32 O34          3.8750    -3.1550     4.9900 os         1 N44      -0.264900
     33 H1          -0.5420    -0.0000    -0.9380 ha         1 N44       0.094000
     34 H2           2.7260     6.2080     4.7100 ha         1 N44       0.093000
     35 H3           1.9250    -0.0000    -0.9380 ha         1 N44       0.097500
     36 H4          -1.7750    -0.0000     1.1970 ha         1 N44       0.097500
     37 H5           3.9370     6.6520     6.8090 ha         1 N44       0.091000
     38 H6           2.3080     3.8910     3.9910 ha         1 N44       0.098000
     39 H7           3.1570     0.0000     1.1980 ha         1 N44       0.116500
     40 H8          -0.5420     0.0010     3.3320 ha         1 N44       0.116500
     41 H9           4.7370     4.7820     8.1990 ha         1 N44       0.105000
     42 H10          4.1010    -0.4660     9.4410 ha         1 N44       0.089000
     43 H11          2.3930    -2.1820     8.9950 ha         1 N44       0.085000
     44 H19          7.9130     3.9790     5.3210 ha         1 N44       0.072000
     45 H19A         9.1900     2.7070     4.7980 ha         1 N44       0.072000
     46 H20          8.3950     1.2120     6.4880 ha         1 N44       0.138000
     47 H23          2.4440    -4.6510     4.7540 h2         1 N44      -0.006300
     48 H23A         1.8300    -2.9790     4.6350 h2         1 N44      -0.006300
     49 H24          1.5500    -0.5110     4.4540 h1         1 N44       0.047700
     50 H24A         3.0820    -0.5120     3.5690 h1         1 N44       0.047700
     51 H25          4.6470     2.4880     8.7450 h1         1 N44       0.031200
     52 H25A         3.7200     1.3520     7.7550 h1         1 N44       0.031200
     53 H26          7.0610     0.0220     7.4500 h1         1 N44       0.025700
     54 H26A         6.1740     0.5100     8.9000 h1         1 N44       0.025700
     55 H27          7.1470     2.6610     8.2870 h1         1 N44      -0.006300
     56 H27A         6.4250     3.5670     6.9500 h1         1 N44      -0.006300
     57 HN28         2.0580     2.1420     3.5590 hn         1 N44       0.169500
     58 C22          6.0880    -1.0740     5.3130 c          1 N44       1.006200
     59 C19          8.3720     3.0040     5.4420 c2         1 N44      -0.223000
@<TRIPOS>BOND
     1     1     3 ar  
     2     1     4 ar  
     3     1    33 1   
     4     2     5 ar  
     5     2     6 ar  
     6     2    34 1   
     7     3     7 ar  
     8     3    35 1   
     9     4     8 ar  
    10     4    36 1   
    11     5     9 ar  
    12     5    37 1   
    13     6    12 ar  
    14     6    38 1   
    15     7    14 ar  
    16     7    39 1   
    17     8    14 ar  
    18     8    40 1   
    19     9    15 ar  
    20     9    41 1   
    21    10    11 ar  
    22    10    16 ar  
    23    10    42 1   
    24    11    17 ar  
    25    11    43 1   
    26    12    15 ar  
    27    12    20 1   
    28    13    16 ar  
    29    13    18 ar  
    30    13    58 1   
    31    14    22 1   
    32    15    23 1   
    33    16    24 1   
    34    17    18 ar  
    35    17    31 1   
    36    18    32 1   
    37    19    25 1   
    38    19    46 1   
    39    19    59 2   
    40    20    26 1   
    41    20    29 2   
    42    21    31 1   
    43    21    32 1   
    44    21    47 1   
    45    21    48 1   
    46    22    26 1   
    47    22    49 1   
    48    22    50 1   
    49    23    27 1   
    50    23    51 1   
    51    23    52 1   
    52    24    27 1   
    53    24    53 1   
    54    24    54 1   
    55    25    27 1   
    56    25    55 1   
    57    25    56 1   
    58    26    57 1   
    59    28    58 1   
    60    30    58 1   
    61    44    59 1   
    62    45    59 1   
@<TRIPOS>SUBSTRUCTURE
     1 N44         1 TEMP              0 ****  ****    0 ROOT
