@<TRIPOS>MOLECULE
N45
   45    48     1     0     0
SMALL
bcc


@<TRIPOS>ATOM
      1 O2           0.0000     0.0000     0.0000 o          1 N45      -0.645500
      2 C10          1.2160     0.0000     0.0000 c          1 N45       0.640700
      3 C9           2.0680     0.0000     1.2040 cc         1 N45      -0.227600
      4 N4           3.3830     0.0010     0.8040 n          1 N45       0.097000
      5 C11          3.3920     0.0000    -0.6630 c3         1 N45       0.057800
      6 C14          4.1020    -1.2530    -1.1770 c3         1 N45      -0.058400
      7 C15          4.0970    -1.2510    -2.7070 c3         1 N45      -0.020400
      8 C16          4.8190    -0.0030    -3.2180 c3         1 N45      -0.030400
      9 C13          4.0980     1.2470    -2.7090 c3         1 N45      -0.020400
     10 C12          4.1030     1.2520    -1.1790 c3         1 N45      -0.058400
     11 N5           1.9950    -0.0060    -1.0980 ns         1 N45      -0.199900
     12 C8           1.7420    -0.0010     2.5300 cd         1 N45      -0.070200
     13 C17          0.2910    -0.0020     2.9390 c3         1 N45       0.063100
     14 C7           2.7340    -0.0020     3.5150 cd         1 N45      -0.067000
     15 C2           4.0600    -0.0000     3.1380 cc         1 N45      -0.110200
     16 C1           4.3820     0.0010     1.7070 c          1 N45       0.604700
     17 O1           5.5440     0.0010     1.3390 o          1 N45      -0.681500
     18 N1           5.0720    -0.0010     4.0930 nu         1 N45      -0.280700
     19 C3           5.9920    -1.0370     4.1290 ca         1 N45       0.572200
     20 C5           5.8430    -2.1440     3.2970 ca         1 N45      -0.481600
     21 C6           6.7940    -3.1560     3.3700 ca         1 N45       0.566200
     22 N6           6.6900    -4.2780     2.5630 nv         1 N45      -0.512500
     23 N3           7.8070    -3.0310     4.2270 nb         1 N45      -0.746000
     24 C4           7.9130    -1.9690     4.9970 ca         1 N45       0.714900
     25 N2           7.0360    -0.9860     4.9540 nb         1 N45      -0.746000
     26 H1           5.1250    -1.2590    -0.8210 hc         1 N45       0.043700
     27 H2           3.5840    -2.1330    -0.8170 hc         1 N45       0.043700
     28 H3           4.6060    -2.1350    -3.0700 hc         1 N45       0.017450
     29 H4           3.0740    -1.2460    -3.0630 hc         1 N45       0.017450
     30 H5           5.8390    -0.0030    -2.8540 hc         1 N45       0.022700
     31 H6           4.8170    -0.0030    -4.3010 hc         1 N45       0.022700
     32 H7           4.6080     2.1300    -3.0730 hc         1 N45       0.017450
     33 H8           3.0750     1.2420    -3.0660 hc         1 N45       0.017450
     34 H9           3.5850     2.1330    -0.8200 hc         1 N45       0.043700
     35 H10          5.1260     1.2580    -0.8230 hc         1 N45       0.043700
     36 H11          1.6740    -0.0130    -2.0460 hn         1 N45       0.225500
     37 H12          0.2200    -0.0020     4.0200 hc         1 N45       0.018700
     38 H13         -0.1950    -0.8870     2.5450 hc         1 N45       0.018700
     39 H14         -0.1960     0.8820     2.5460 hc         1 N45       0.018700
     40 H15          2.4640    -0.0020     4.5640 ha         1 N45       0.123000
     41 H16          5.1360     0.7480     4.7540 hn         1 N45       0.292800
     42 H17          4.8970    -2.3240     2.8000 ha         1 N45       0.127000
     43 H18          5.9100    -4.3790     1.9440 hn         1 N45       0.268800
     44 H19          7.3780    -5.0020     2.6220 hn         1 N45       0.268800
     45 H20          8.7490    -1.8970     5.6820 h5         1 N45      -0.008900
@<TRIPOS>BOND
     1     1     2 2   
     2     2     3 1   
     3     2    11 1   
     4     3     4 1   
     5     3    12 2   
     6     4     5 1   
     7     4    16 1   
     8     5     6 1   
     9     5    10 1   
    10     5    11 1   
    11     6     7 1   
    12     6    26 1   
    13     6    27 1   
    14     7     8 1   
    15     7    28 1   
    16     7    29 1   
    17     8     9 1   
    18     8    30 1   
    19     8    31 1   
    20     9    10 1   
    21     9    32 1   
    22     9    33 1   
    23    10    34 1   
    24    10    35 1   
    25    11    36 1   
    26    12    13 1   
    27    12    14 1   
    28    13    37 1   
    29    13    38 1   
    30    13    39 1   
    31    14    15 2   
    32    14    40 1   
    33    15    16 1   
    34    15    18 1   
    35    16    17 2   
    36    18    19 1   
    37    18    41 1   
    38    19    20 ar  
    39    19    25 ar  
    40    20    21 ar  
    41    20    42 1   
    42    21    22 1   
    43    21    23 ar  
    44    22    43 1   
    45    22    44 1   
    46    23    24 ar  
    47    24    25 ar  
    48    24    45 1   
@<TRIPOS>SUBSTRUCTURE
     1 N45         1 TEMP              0 ****  ****    0 ROOT
