@<TRIPOS>MOLECULE
molecule
   44    46     1     0     0
SMALL
bcc


@<TRIPOS>ATOM
      1 O3           0.0000     0.0000     0.0000 o          1 N48      -0.643500
      2 C14          1.2190     0.0000     0.0000 c          1 N48       0.700700
      3 C13          1.9060     0.0000     1.2300 cc         1 N48      -0.251200
      4 C12          3.2640     0.0010     1.2560 cd         1 N48       0.016600
      5 C18          4.0090     0.0010     2.5660 c3         1 N48      -0.059900
      6 N2           1.8740    -0.0060    -1.1750 n          1 N48      -0.338000
      7 C15          1.1130    -0.0110    -2.4260 c3         1 N48       0.077300
      8 C16          3.2540    -0.0060    -1.2180 ca         1 N48       0.138600
      9 C17          3.9280    -0.0120    -2.4330 ca         1 N48      -0.285000
     10 C1           5.3090    -0.0120    -2.4570 ca         1 N48       0.214100
     11 O            5.9630    -0.0180    -3.6470 os         1 N48      -0.301900
     12 C            5.1590    -0.0230    -4.8290 c3         1 N48       0.121700
     13 C11          3.9870     0.0010    -0.0150 ca         1 N48      -0.155800
     14 C10          5.3870     0.0010    -0.0480 ca         1 N48      -0.093000
     15 C2           6.0400    -0.0060    -1.2620 ca         1 N48       0.042600
     16 N            7.4400    -0.0050    -1.3010 nu         1 N48      -0.681500
     17 S            8.3010    -0.8320    -0.1540 sy         1 N48       1.376200
     18 O1           9.6650    -0.7610    -0.5460 o          1 N48      -0.638300
     19 O2           7.8290    -0.3780     1.1070 o          1 N48      -0.638300
     20 C3           7.8380    -2.5290    -0.2750 ca         1 N48      -0.278500
     21 C8           8.5370    -3.3750    -1.1170 ca         1 N48      -0.026500
     22 C7           8.1800    -4.7040    -1.2170 ca         1 N48      -0.115500
     23 C6           7.1090    -5.1940    -0.4670 ca         1 N48       0.039000
     24 C9           6.7290    -6.5700    -0.5710 cg         1 N48       0.227800
     25 N1           6.4130    -7.6590    -0.6410 n1         1 N48      -0.340800
     26 C5           6.4070    -4.3330     0.3800 ca         1 N48      -0.115500
     27 C4           6.7780    -3.0090     0.4740 ca         1 N48      -0.026500
     28 H1           1.3530     0.0520     2.1600 ha         1 N48       0.168000
     29 H2           4.6420     0.8780     2.6210 hc         1 N48       0.055700
     30 H3           4.6200    -0.8910     2.6340 hc         1 N48       0.055700
     31 H4           3.2990     0.0160     3.3850 hc         1 N48       0.055700
     32 H5           0.0520    -0.0100    -2.2040 h1         1 N48       0.058033
     33 H6           1.3610     0.8710    -3.0040 h1         1 N48       0.058033
     34 H7           1.3610    -0.8980    -2.9960 h1         1 N48       0.058033
     35 H8           3.3690     0.0130    -3.3610 ha         1 N48       0.152000
     36 H9           4.5390    -0.9110    -4.8400 h1         1 N48       0.046367
     37 H10          5.8010    -0.0200    -5.7020 h1         1 N48       0.046367
     38 H11          4.5290     0.8580    -4.8410 h1         1 N48       0.046367
     39 H12          5.9510    -0.0170     0.8770 ha         1 N48       0.194000
     40 H13          7.9400     0.8620    -1.3190 hn         1 N48       0.424800
     41 H14          9.3320    -2.9830    -1.7410 ha         1 N48       0.157500
     42 H15          8.7290    -5.3640    -1.8770 ha         1 N48       0.150000
     43 H16          5.5750    -4.7080     0.9640 ha         1 N48       0.150000
     44 H17          6.2010    -2.3310     1.0920 ha         1 N48       0.157500
@<TRIPOS>BOND
     1    25    24 3
     2     1     2 2
     3    24    23 1
     4     2     3 1
     5     2     6 1
     6     3     4 2
     7     7     6 1
     8     6     8 1
     9    23    26 ar
    10    23    22 ar
    11     4     5 1
    12     4    13 1
    13    26    27 ar
    14    22    21 ar
    15     8    13 ar
    16     8     9 ar
    17    13    14 ar
    18     9    10 ar
    19    27    20 ar
    20    21    20 ar
    21    14    15 ar
    22    20    17 1
    23    10    15 ar
    24    10    11 1
    25    15    16 1
    26    11    12 1
    27    18    17 2
    28    17    16 1
    29    17    19 2
    30     3    28 1
    31     5    29 1
    32     5    30 1
    33     5    31 1
    34     7    32 1
    35     7    33 1
    36     7    34 1
    37     9    35 1
    38    12    36 1
    39    12    37 1
    40    12    38 1
    41    14    39 1
    42    16    40 1
    43    21    41 1
    44    22    42 1
    45    26    43 1
    46    27    44 1
@<TRIPOS>SUBSTRUCTURE
     1 N48         1 TEMP              0 ****  ****    0 ROOT
