@<TRIPOS>MOLECULE
molecule
   66    70     1     0     0
SMALL
bcc


@<TRIPOS>ATOM
      1 O4           0.0000     0.0000     0.0000 o          1 N4A      -0.614300
      2 S1           1.4220     0.0000     0.0000 sy         1 N4A       1.413200
      3 O3           2.1990     0.0000     1.1900 o          1 N4A      -0.614300
      4 C18          1.9190    -1.4180    -0.9190 ca         1 N4A      -0.317500
      5 C23          3.1800    -1.9710    -0.7000 ca         1 N4A      -0.059000
      6 C22          3.5940    -3.0660    -1.3930 ca         1 N4A      -0.117000
      7 C21          2.7420    -3.6510    -2.3450 ca         1 N4A       0.007000
      8 C27          3.1360    -4.7840    -3.0790 ca         1 N4A      -0.128000
      9 C26          2.2830    -5.3230    -3.9920 ca         1 N4A      -0.094000
     10 C25          1.0230    -4.7710    -4.2120 ca         1 N4A      -0.121000
     11 C24          0.6080    -3.6750    -3.5200 ca         1 N4A      -0.108000
     12 C20          1.4600    -3.0890    -2.5670 ca         1 N4A      -0.066000
     13 C19          1.0640    -1.9620    -1.8290 ca         1 N4A      -0.003000
     14 N2           1.8890     1.3330    -0.8640 nu         1 N4A      -0.758500
     15 C1           1.3160     1.5920    -2.1170 ca         1 N4A       0.061300
     16 C2           2.0780     2.1570    -3.1390 ca         1 N4A       0.619600
     17 O1           3.3830     2.4570    -2.9170 os         1 N4A      -0.331400
     18 C7           4.0540     3.1380    -3.8820 ca         1 N4A       0.189100
     19 C12          3.9420     2.7480    -5.2110 ca         1 N4A      -0.124500
     20 C11          4.6210     3.4370    -6.1910 ca         1 N4A      -0.074000
     21 C10          5.4210     4.5280    -5.8490 ca         1 N4A      -0.237900
     22 C28          6.1520     5.2710    -6.8990 ce         1 N4A       0.537800
     23 N4           7.0290     6.2740    -6.5510 nz         1 N4A      -0.802600
     24 N3           5.9640     4.9760    -8.1560 n2         1 N4A      -0.696100
     25 C9           5.5310     4.9180    -4.5130 ca         1 N4A      -0.074000
     26 C8           4.8450     4.2280    -3.5380 ca         1 N4A      -0.124500
     27 C5          -0.0180     1.2850    -2.3590 ca         1 N4A      -0.092000
     28 C4          -0.5420     1.5590    -3.6120 ca         1 N4A      -0.208300
     29 C3           0.2730     2.1260    -4.5800 ca         1 N4A       0.623600
     30 N1           1.5410     2.4030    -4.3220 nb         1 N4A      -0.824000
     31 O2          -0.2350     2.3970    -5.8100 os         1 N4A      -0.316400
     32 C6           0.1450     3.5500    -6.4180 ca         1 N4A       0.204100
     33 C17         -0.2400     3.8030    -7.7280 ca         1 N4A      -0.157000
     34 C16          0.1440     4.9730    -8.3470 ca         1 N4A      -0.055000
     35 C15          0.9200     5.9050    -7.6560 ca         1 N4A      -0.239900
     36 C29          1.3330     7.1610    -8.3170 ce         1 N4A       0.538800
     37 N6           0.8840     7.4500    -9.5060 n2         1 N4A      -0.671100
     38 N5           2.1940     8.0260    -7.6770 nz         1 N4A      -0.799600
     39 C14          1.3060     5.6470    -6.3390 ca         1 N4A      -0.055000
     40 C13          0.9140     4.4780    -5.7250 ca         1 N4A      -0.157000
     41 H1           3.8390    -1.5220     0.0330 ha         1 N4A       0.151000
     42 H2           4.5770    -3.4850    -1.2120 ha         1 N4A       0.147000
     43 H3           4.1120    -5.2240    -2.9190 ha         1 N4A       0.146000
     44 H4           2.5890    -6.1950    -4.5570 ha         1 N4A       0.144000
     45 H5           0.3640    -5.2200    -4.9450 ha         1 N4A       0.142000
     46 H6          -0.3750    -3.2560    -3.7010 ha         1 N4A       0.136000
     47 H7           0.0460    -1.6000    -1.8990 ha         1 N4A       0.149000
     48 H8           2.5510     1.9750    -0.4740 hn         1 N4A       0.473800
     49 H9           3.3210     1.9010    -5.4750 ha         1 N4A       0.186000
     50 H10          4.5330     3.1320    -7.2270 ha         1 N4A       0.143000
     51 H11          6.5430     6.9770    -6.0300 hn         1 N4A       0.466133
     52 H12          7.7650     5.8940    -5.9900 hn         1 N4A       0.466133
     53 H13          6.4570     5.4780    -8.8680 hn         1 N4A       0.434400
     54 H14          6.1490     5.7660    -4.2440 ha         1 N4A       0.143000
     55 H15          4.9290     4.5290    -2.5010 ha         1 N4A       0.186000
     56 H16         -0.6800     1.0590    -1.5320 ha         1 N4A       0.232000
     57 H17         -1.5270     1.1940    -3.8780 ha         1 N4A       0.184000
     58 H18         -0.8430     3.0800    -8.2640 ha         1 N4A       0.184000
     59 H19         -0.1570     5.1690    -9.3690 ha         1 N4A       0.138000
     60 H20          1.1640     8.3000    -9.9540 hn         1 N4A       0.435400
     61 H21          1.7900     8.3180    -6.8090 hn         1 N4A       0.457467
     62 H22          3.0640     7.5620    -7.5000 hn         1 N4A       0.457467
     63 H23          1.9070     6.3680    -5.7990 ha         1 N4A       0.138000
     64 H24          1.2130     4.2770    -4.7030 ha         1 N4A       0.184000
     65 H43          7.3950     6.7000    -7.3790 hn         1 N4A       0.466133
     66 H53          2.3350     8.8380    -8.2440 hn         1 N4A       0.457467
@<TRIPOS>BOND
     1    10    11 ar
     2    10     9 ar
     3    11    12 ar
     4     9     8 ar
     5    12    13 ar
     6    12     7 ar
     7     8     7 ar
     8    13     4 ar
     9     7     6 ar
    10     1     2 2
    11     4     2 1
    12     4     5 ar
    13     6     5 ar
    14     2     3 2
    15     2    14 1
    16    14    15 1
    17    15    27 ar
    18    15    16 ar
    19    17    16 1
    20    17    18 1
    21    19    18 ar
    22    19    20 ar
    23    27    28 ar
    24    16    30 ar
    25    18    26 ar
    26    20    21 ar
    27    28    29 ar
    28    30    29 ar
    29    26    25 ar
    30    21    25 ar
    31    21    22 1
    32    29    31 1
    33    24    22 2
    34    22    23 1
    35    31    32 1
    36    40    32 ar
    37    40    39 ar
    38    32    33 ar
    39    39    35 ar
    40    33    34 ar
    41    35    34 ar
    42    35    36 1
    43    37    36 2
    44    36    38 1
    45     5    41 1
    46     6    42 1
    47     8    43 1
    48     9    44 1
    49    10    45 1
    50    11    46 1
    51    13    47 1
    52    14    48 1
    53    19    49 1
    54    20    50 1
    55    23    51 1
    56    23    52 1
    57    24    53 1
    58    25    54 1
    59    26    55 1
    60    27    56 1
    61    28    57 1
    62    33    58 1
    63    34    59 1
    64    37    60 1
    65    38    61 1
    66    38    62 1
    67    39    63 1
    68    40    64 1
    69    65    23 1
    70    66    38 1
@<TRIPOS>SUBSTRUCTURE
     1 N4A         1 TEMP              0 ****  ****    0 ROOT
