@<TRIPOS>MOLECULE
N4A
   66    70     1     0     0
SMALL
bcc


@<TRIPOS>ATOM
      1 O4           0.0000     0.0000     0.0000 o          1 N4A      -0.564800
      2 S1           1.4220     0.0000     0.0000 sy         1 N4A       1.041200
      3 O3           2.1990     0.0000     1.1900 o          1 N4A      -0.564800
      4 C18          1.9190    -1.4180    -0.9190 ca         1 N4A      -0.166500
      5 C23          3.1800    -1.9710    -0.7000 ca         1 N4A      -0.030000
      6 C22          3.5940    -3.0660    -1.3930 ca         1 N4A      -0.094000
      7 C21          2.7420    -3.6510    -2.3450 ca         1 N4A       0.005000
      8 C27          3.1360    -4.7840    -3.0790 ca         1 N4A      -0.099000
      9 C26          2.2830    -5.3230    -3.9920 ca         1 N4A      -0.065000
     10 C25          1.0230    -4.7710    -4.2120 ca         1 N4A      -0.092000
     11 C24          0.6080    -3.6750    -3.5200 ca         1 N4A      -0.079000
     12 C20          1.4600    -3.0890    -2.5670 ca         1 N4A      -0.075000
     13 C19          1.0640    -1.9620    -1.8290 ca         1 N4A       0.027000
     14 N2           1.8890     1.3330    -0.8640 nu         1 N4A      -0.393500
     15 C1           1.3160     1.5920    -2.1170 ca         1 N4A      -0.020700
     16 C2           2.0780     2.1570    -3.1390 ca         1 N4A       0.560600
     17 O1           3.3830     2.4570    -2.9170 os         1 N4A      -0.314400
     18 C7           4.0540     3.1380    -3.8820 ca         1 N4A       0.200100
     19 C12          3.9420     2.7480    -5.2110 ca         1 N4A      -0.099000
     20 C11          4.6210     3.4370    -6.1910 ca         1 N4A      -0.053500
     21 C10          5.4210     4.5280    -5.8490 ca         1 N4A      -0.280900
     22 C28          6.1520     5.2710    -6.8990 ce         1 N4A       0.213800
     23 N4           7.0290     6.2740    -6.5510 nz         1 N4A       0.191400
     24 N3           5.9640     4.9760    -8.1560 n2         1 N4A      -0.509100
     25 C9           5.5310     4.9180    -4.5130 ca         1 N4A      -0.053500
     26 C8           4.8450     4.2280    -3.5380 ca         1 N4A      -0.099000
     27 C5          -0.0180     1.2850    -2.3590 ca         1 N4A      -0.073000
     28 C4          -0.5420     1.5590    -3.6120 ca         1 N4A      -0.178300
     29 C3           0.2730     2.1260    -4.5800 ca         1 N4A       0.567600
     30 N1           1.5410     2.4030    -4.3220 nb         1 N4A      -0.707000
     31 O2          -0.2350     2.3970    -5.8100 os         1 N4A      -0.297400
     32 C6           0.1450     3.5500    -6.4180 ca         1 N4A       0.217100
     33 C17         -0.2400     3.8030    -7.7280 ca         1 N4A      -0.140000
     34 C16          0.1440     4.9730    -8.3470 ca         1 N4A      -0.037000
     35 C15          0.9200     5.9050    -7.6560 ca         1 N4A      -0.285900
     36 C29          1.3330     7.1610    -8.3170 ce         1 N4A       0.201800
     37 N6           0.8840     7.4500    -9.5060 n2         1 N4A      -0.476100
     38 N5           2.1940     8.0260    -7.6770 nz         1 N4A       0.198400
     39 C14          1.3060     5.6470    -6.3390 ca         1 N4A      -0.037000
     40 C13          0.9140     4.4780    -5.7250 ca         1 N4A      -0.140000
     41 H1           3.8390    -1.5230     0.0340 ha         1 N4A       0.125000
     42 H2           4.5770    -3.4850    -1.2120 ha         1 N4A       0.119000
     43 H3           4.1120    -5.2240    -2.9190 ha         1 N4A       0.117000
     44 H4           2.5890    -6.1950    -4.5570 ha         1 N4A       0.112000
     45 H5           0.3640    -5.2200    -4.9450 ha         1 N4A       0.112000
     46 H6          -0.3750    -3.2560    -3.7010 ha         1 N4A       0.108000
     47 H7           0.0460    -1.5980    -1.9000 ha         1 N4A       0.124000
     48 H8           2.5510     1.9750    -0.4740 hn         1 N4A       0.354800
     49 H9           3.3210     1.9010    -5.4750 ha         1 N4A       0.153000
     50 H10          4.5330     3.1320    -7.2270 ha         1 N4A       0.100000
     51 H11          7.4320     6.6670    -7.3780 hn         1 N4A       0.223133
     52 H12          6.5380     6.9870    -6.0490 hn         1 N4A       0.223133
     53 H13          5.3270     4.2480    -8.4100 hn         1 N4A       0.382400
     54 H14          6.1490     5.7660    -4.2440 ha         1 N4A       0.100000
     55 H15          4.9290     4.5290    -2.5010 ha         1 N4A       0.153000
     56 H16         -0.6800     1.0590    -1.5320 ha         1 N4A       0.202000
     57 H17         -1.6090     1.4740    -3.7830 ha         1 N4A       0.145000
     58 H18         -0.8430     3.0800    -8.2640 ha         1 N4A       0.155000
     59 H19         -0.1570     5.1690    -9.3690 ha         1 N4A       0.095000
     60 H20          0.2590     6.8230    -9.9720 hn         1 N4A       0.386400
     61 H21          3.0660     7.5640    -7.5060 hn         1 N4A       0.214133
     62 H22          1.7930     8.3130    -6.8060 hn         1 N4A       0.214133
     63 H23          1.9070     6.3680    -5.7990 ha         1 N4A       0.095000
     64 H24          1.2130     4.2770    -4.7030 ha         1 N4A       0.155000
     65 H43          7.7690     5.8930    -5.9960 hn         1 N4A       0.223133
     66 H53          2.3530     8.8280    -8.2550 hn         1 N4A       0.214133
@<TRIPOS>BOND
     1     1     2 2   
     2     2     3 2   
     3     2     4 1   
     4     2    14 1   
     5     4     5 ar  
     6     4    13 ar  
     7     5     6 ar  
     8     5    41 1   
     9     6     7 ar  
    10     6    42 1   
    11     7     8 ar  
    12     7    12 ar  
    13     8     9 ar  
    14     8    43 1   
    15     9    10 ar  
    16     9    44 1   
    17    10    11 ar  
    18    10    45 1   
    19    11    12 ar  
    20    11    46 1   
    21    12    13 ar  
    22    13    47 1   
    23    14    15 1   
    24    14    48 1   
    25    15    16 ar  
    26    15    27 ar  
    27    16    17 1   
    28    16    30 ar  
    29    17    18 1   
    30    18    19 ar  
    31    18    26 ar  
    32    19    20 ar  
    33    19    49 1   
    34    20    21 ar  
    35    20    50 1   
    36    21    22 1   
    37    21    25 ar  
    38    22    23 1   
    39    22    24 2   
    40    23    51 1   
    41    23    52 1   
    42    23    65 1   
    43    24    53 1   
    44    25    26 ar  
    45    25    54 1   
    46    26    55 1   
    47    27    28 ar  
    48    27    56 1   
    49    28    29 ar  
    50    28    57 1   
    51    29    30 ar  
    52    29    31 1   
    53    31    32 1   
    54    32    33 ar  
    55    32    40 ar  
    56    33    34 ar  
    57    33    58 1   
    58    34    35 ar  
    59    34    59 1   
    60    35    36 1   
    61    35    39 ar  
    62    36    37 2   
    63    36    38 1   
    64    37    60 1   
    65    38    61 1   
    66    38    62 1   
    67    38    66 1   
    68    39    40 ar  
    69    39    63 1   
    70    40    64 1   
@<TRIPOS>SUBSTRUCTURE
     1 N4A         1 TEMP              0 ****  ****    0 ROOT
