@<TRIPOS>MOLECULE
molecule
   24    24     1     0     0
SMALL
bcc


@<TRIPOS>ATOM
      1 C1           0.0000     0.0000     0.0000 ca         1 N4B      -0.080300
      2 C2           1.3820     0.0000     0.0000 ca         1 N4B      -0.126000
      3 C3           2.0730     0.0000     1.1960 ca         1 N4B      -0.126000
      4 C4           1.3830    -0.0010     2.3940 ca         1 N4B      -0.133000
      5 C5           0.0010    -0.0010     2.3940 ca         1 N4B      -0.126000
      6 C6          -0.6900     0.0040     1.1970 ca         1 N4B      -0.126000
      7 C1'         -0.7530     0.0010    -1.3040 c3         1 N4B      -0.037100
      8 C2'         -1.0080    -1.4400    -1.7470 c3         1 N4B      -0.077400
      9 C3'         -1.7720    -1.4410    -3.0720 c3         1 N4B      -0.085400
     10 C4'         -2.0280    -2.8810    -3.5140 c3         1 N4B      -0.091100
     11 H2           1.9230    -0.0010    -0.9380 ha         1 N4B       0.129000
     12 H3           3.1560     0.0000     1.1960 ha         1 N4B       0.128000
     13 H4           1.9250    -0.0020     3.3320 ha         1 N4B       0.128000
     14 H5          -0.5400     0.0010     3.3320 ha         1 N4B       0.128000
     15 H6          -1.7740     0.0040     1.1980 ha         1 N4B       0.129000
     16 H1'1        -0.1680     0.5120    -2.0590 hc         1 N4B       0.047700
     17 H1'2        -1.7000     0.5120    -1.1740 hc         1 N4B       0.047700
     18 H2'1        -0.0610    -1.9510    -1.8760 hc         1 N4B       0.045700
     19 H2'2        -1.5940    -1.9520    -0.9920 hc         1 N4B       0.045700
     20 H3'1        -1.1860    -0.9300    -3.8260 hc         1 N4B       0.039700
     21 H3'2        -2.7190    -0.9290    -2.9430 hc         1 N4B       0.039700
     22 H4'1        -1.0820    -3.3930    -3.6440 hc         1 N4B       0.033367
     23 H4'2        -2.6150    -3.3920    -2.7600 hc         1 N4B       0.033367
     24 H4'3        -2.5690    -2.8800    -4.4530 hc         1 N4B       0.033367
@<TRIPOS>BOND
     1     1     2 ar
     2     1     6 ar
     3     1     7 1
     4     2     3 ar
     5     2    11 1
     6     3     4 ar
     7     3    12 1
     8     4     5 ar
     9     4    13 1
    10     5     6 ar
    11     5    14 1
    12     6    15 1
    13     7     8 1
    14     7    16 1
    15     7    17 1
    16     8     9 1
    17     8    18 1
    18     8    19 1
    19     9    10 1
    20     9    20 1
    21     9    21 1
    22    10    22 1
    23    10    23 1
    24    10    24 1
@<TRIPOS>SUBSTRUCTURE
     1 N4B         1 TEMP              0 ****  ****    0 ROOT
