@<TRIPOS>MOLECULE
N4C
   68    71     1     0     0
SMALL
bcc


@<TRIPOS>ATOM
      1 O3           0.0000     0.0000     0.0000 o          1 N4C      -0.606100
      2 C8           1.2150     0.0000     0.0000 c          1 N4C       0.590700
      3 N2           1.8890     0.0000     1.1680 ns         1 N4C      -0.185900
      4 C9           1.1550     0.0010     2.4370 c3         1 N4C       0.013700
      5 C14          2.0320     0.6110     3.5320 c3         1 N4C      -0.029400
      6 C13          1.2660     0.6120     4.8560 c3         1 N4C      -0.020900
      7 C12          0.9020    -0.8240     5.2360 c3         1 N4C      -0.088500
      8 N3           0.1670    -0.8250     6.5070 nz         1 N4C       0.082400
      9 C11          0.0260    -1.4350     4.1400 c3         1 N4C      -0.020900
     10 C10          0.7910    -1.4360     2.8160 c3         1 N4C      -0.029400
     11 C5           1.9570    -0.0060    -1.2830 ca         1 N4C      -0.069600
     12 C1           1.2770    -0.0140    -2.5030 ca         1 N4C      -0.185300
     13 C4           3.3540    -0.0010    -1.3030 ca         1 N4C      -0.185300
     14 C3           4.0110    -0.0070    -2.5250 ca         1 N4C       0.601600
     15 O2           5.3670    -0.0020    -2.5560 os         1 N4C      -0.314400
     16 C6           5.9890    -0.8760    -3.3880 ca         1 N4C       0.207600
     17 C24          7.3680    -0.8210    -3.5460 ca         1 N4C      -0.134250
     18 C23          8.0030    -1.7070    -4.3900 ca         1 N4C      -0.036250
     19 C22          7.2580    -2.6610    -5.0850 ca         1 N4C      -0.263400
     20 C26          7.9340    -3.6110    -5.9950 ce         1 N4C       0.206800
     21 N7           9.3110    -3.6330    -6.0690 nz         1 N4C       0.191900
     22 N6           7.2300    -4.4260    -6.7280 n2         1 N4C      -0.470600
     23 C21          5.8720    -2.7130    -4.9240 ca         1 N4C      -0.036250
     24 C20          5.2450    -1.8280    -4.0760 ca         1 N4C      -0.134250
     25 N1           3.3310    -0.0190    -3.6600 nb         1 N4C      -0.657000
     26 C2           2.0080    -0.0190    -3.6830 ca         1 N4C       0.601600
     27 O1           1.3590    -0.0310    -4.8730 os         1 N4C      -0.314400
     28 C7           1.7870     0.8190    -5.8410 ca         1 N4C       0.207600
     29 C19          1.2370     0.7510    -7.1160 ca         1 N4C      -0.134250
     30 C18          1.6690     1.6130    -8.1000 ca         1 N4C      -0.036250
     31 C17          2.6580     2.5550    -7.8170 ca         1 N4C      -0.263400
     32 C25          3.1240     3.4820    -8.8710 ce         1 N4C       0.206800
     33 N5           2.5380     3.4920   -10.0360 n2         1 N4C      -0.470600
     34 N4           4.1770     4.3350    -8.6240 nz         1 N4C       0.191900
     35 C16          3.2080     2.6210    -6.5360 ca         1 N4C      -0.036250
     36 C15          2.7690     1.7590    -5.5550 ca         1 N4C      -0.134250
     37 H1           2.8890     0.0220     1.1680 hn         1 N4C       0.183500
     38 H2           0.2490     0.5860     2.3340 h1         1 N4C       0.070700
     39 H3           2.9360     0.0240     3.6390 hc         1 N4C       0.041950
     40 H4           2.2860     1.6300     3.2630 hc         1 N4C       0.041950
     41 H5           0.3600     1.1960     4.7480 hc         1 N4C       0.041200
     42 H6           1.8880     1.0420     5.6320 hc         1 N4C       0.041200
     43 H7           1.8080    -1.4090     5.3380 hx         1 N4C       0.093700
     44 H8           0.7400    -0.4260     7.2240 hn         1 N4C       0.228467
     45 H9          -0.0710    -1.7650     6.7550 hn         1 N4C       0.228467
     46 H11         -0.8780    -0.8470     4.0330 hc         1 N4C       0.041200
     47 H12         -0.2290    -2.4530     4.4090 hc         1 N4C       0.041200
     48 H13          0.1680    -1.8660     2.0400 hc         1 N4C       0.041950
     49 H14          1.6970    -2.0210     2.9240 hc         1 N4C       0.041950
     50 H15          0.2090    -0.1940    -2.5270 ha         1 N4C       0.149000
     51 H16          3.9100    -0.1690    -0.3880 ha         1 N4C       0.149000
     52 H17          7.9450    -0.0800    -3.0060 ha         1 N4C       0.145250
     53 H18          9.0780    -1.6640    -4.5120 ha         1 N4C       0.103250
     54 H19          9.6420    -2.7530    -6.4120 hn         1 N4C       0.222800
     55 H20          9.6000    -4.3630    -6.6890 hn         1 N4C       0.222800
     56 H21          6.2310    -4.4120    -6.6760 hn         1 N4C       0.379400
     57 H22          5.2920    -3.4540    -5.4610 ha         1 N4C       0.103250
     58 H23          4.1700    -1.8680    -3.9500 ha         1 N4C       0.145250
     59 H24          0.4720     0.0160    -7.3380 ha         1 N4C       0.145250
     60 H25          1.2650     1.5370    -9.1030 ha         1 N4C       0.103250
     61 H26          1.7730     2.8730   -10.2180 hn         1 N4C       0.379400
     62 H27          4.3930     4.8480    -9.4560 hn         1 N4C       0.222800
     63 H28          3.9250     4.9730    -7.8950 hn         1 N4C       0.222800
     64 H29          3.9360     3.3860    -6.2980 ha         1 N4C       0.103250
     65 H30          2.9950     2.3590    -4.6820 ha         1 N4C       0.145250
     66 H33         -0.6570    -0.2630     6.4170 hn         1 N4C       0.228467
     67 H73          9.6910    -3.7940    -5.1570 hn         1 N4C       0.222800
     68 H43          4.9750     3.8050    -8.3340 hn         1 N4C       0.222800
@<TRIPOS>BOND
     1     1     2 2   
     2     2     3 1   
     3     2    11 1   
     4     3     4 1   
     5     3    37 1   
     6     4     5 1   
     7     4    10 1   
     8     4    38 1   
     9     5     6 1   
    10     5    39 1   
    11     5    40 1   
    12     6     7 1   
    13     6    41 1   
    14     6    42 1   
    15     7     8 1   
    16     7     9 1   
    17     7    43 1   
    18     8    44 1   
    19     8    45 1   
    20     8    66 1   
    21     9    10 1   
    22     9    46 1   
    23     9    47 1   
    24    10    48 1   
    25    10    49 1   
    26    11    12 ar  
    27    11    13 ar  
    28    12    26 ar  
    29    12    50 1   
    30    13    14 ar  
    31    13    51 1   
    32    14    15 1   
    33    14    25 ar  
    34    15    16 1   
    35    16    17 ar  
    36    16    24 ar  
    37    17    18 ar  
    38    17    52 1   
    39    18    19 ar  
    40    18    53 1   
    41    19    20 1   
    42    19    23 ar  
    43    20    21 1   
    44    20    22 2   
    45    21    54 1   
    46    21    55 1   
    47    21    67 1   
    48    22    56 1   
    49    23    24 ar  
    50    23    57 1   
    51    24    58 1   
    52    25    26 ar  
    53    26    27 1   
    54    27    28 1   
    55    28    29 ar  
    56    28    36 ar  
    57    29    30 ar  
    58    29    59 1   
    59    30    31 ar  
    60    30    60 1   
    61    31    32 1   
    62    31    35 ar  
    63    32    33 2   
    64    32    34 1   
    65    33    61 1   
    66    34    62 1   
    67    34    63 1   
    68    34    68 1   
    69    35    36 ar  
    70    35    64 1   
    71    36    65 1   
@<TRIPOS>SUBSTRUCTURE
     1 N4C         1 TEMP              0 ****  ****    0 ROOT
