@<TRIPOS>MOLECULE
molecule
   68    71     1     0     0
SMALL
bcc


@<TRIPOS>ATOM
      1 O3           0.0000     0.0000     0.0000 o          1 N4C      -0.564100
      2 C8           1.2150     0.0000     0.0000 c          1 N4C       0.674700
      3 N2           1.8890     0.0000     1.1680 ns         1 N4C      -0.577900
      4 C9           1.1550     0.0010     2.4370 c3         1 N4C       0.113700
      5 C14          2.0320     0.6110     3.5320 c3         1 N4C      -0.088900
      6 C13          1.2660     0.6120     4.8560 c3         1 N4C      -0.098900
      7 C12          0.9020    -0.8240     5.2360 c3         1 N4C       0.094500
      8 N3           0.1670    -0.8250     6.5070 nz         1 N4C      -0.808600
      9 C11          0.0260    -1.4350     4.1400 c3         1 N4C      -0.098900
     10 C10          0.7910    -1.4360     2.8160 c3         1 N4C      -0.088900
     11 C5           1.9570    -0.0060    -1.2830 ca         1 N4C      -0.065600
     12 C1           1.2770    -0.0140    -2.5030 ca         1 N4C      -0.206800
     13 C4           3.3540    -0.0010    -1.3030 ca         1 N4C      -0.206800
     14 C3           4.0110    -0.0070    -2.5250 ca         1 N4C       0.649600
     15 O2           5.3670    -0.0020    -2.5560 os         1 N4C      -0.329900
     16 C6           5.9890    -0.8760    -3.3880 ca         1 N4C       0.182600
     17 C24          7.3680    -0.8210    -3.5460 ca         1 N4C      -0.156000
     18 C23          8.0030    -1.7070    -4.3900 ca         1 N4C      -0.052500
     19 C22          7.2580    -2.6610    -5.0850 ca         1 N4C      -0.220900
     20 C26          7.9340    -3.6110    -5.9950 ce         1 N4C       0.538800
     21 N7           9.3110    -3.6330    -6.0690 nz         1 N4C      -0.801600
     22 N6           7.2300    -4.4260    -6.7280 n2         1 N4C      -0.674100
     23 C21          5.8720    -2.7130    -4.9240 ca         1 N4C      -0.052500
     24 C20          5.2450    -1.8280    -4.0760 ca         1 N4C      -0.156000
     25 N1           3.3310    -0.0190    -3.6600 nb         1 N4C      -0.789000
     26 C2           2.0080    -0.0190    -3.6830 ca         1 N4C       0.649600
     27 O1           1.3590    -0.0310    -4.8730 os         1 N4C      -0.329900
     28 C7           1.7870     0.8190    -5.8410 ca         1 N4C       0.182600
     29 C19          1.2370     0.7510    -7.1160 ca         1 N4C      -0.156000
     30 C18          1.6690     1.6130    -8.1000 ca         1 N4C      -0.052500
     31 C17          2.6580     2.5550    -7.8170 ca         1 N4C      -0.220900
     32 C25          3.1240     3.4820    -8.8710 ce         1 N4C       0.538800
     33 N5           2.5380     3.4920   -10.0360 n2         1 N4C      -0.674100
     34 N4           4.1770     4.3350    -8.6240 nz         1 N4C      -0.801600
     35 C16          3.2080     2.6210    -6.5360 ca         1 N4C      -0.052500
     36 C15          2.7690     1.7590    -5.5550 ca         1 N4C      -0.156000
     37 H1           2.8890     0.0120     1.1680 hn         1 N4C       0.322500
     38 H2           0.2490     0.5860     2.3340 h1         1 N4C       0.095700
     39 H3           2.2860     1.6300     3.2630 hc         1 N4C       0.075450
     40 H4           2.9360     0.0240     3.6390 hc         1 N4C       0.075450
     41 H5           1.8880     1.0420     5.6320 hc         1 N4C       0.073950
     42 H6           0.3600     1.1960     4.7480 hc         1 N4C       0.073950
     43 H7           1.8080    -1.4090     5.3380 hx         1 N4C       0.116700
     44 H8           0.7400    -0.4260     7.2240 hn         1 N4C       0.459467
     45 H9          -0.0700    -1.7650     6.7550 hn         1 N4C       0.459467
     46 H11         -0.2290    -2.4530     4.4090 hc         1 N4C       0.073950
     47 H12         -0.8780    -0.8470     4.0330 hc         1 N4C       0.073950
     48 H13          1.6970    -2.0210     2.9240 hc         1 N4C       0.075450
     49 H14          0.1680    -1.8660     2.0400 hc         1 N4C       0.075450
     50 H15          0.1940    -0.0140    -2.5280 ha         1 N4C       0.180500
     51 H16          3.9080     0.1840    -0.3910 ha         1 N4C       0.180500
     52 H17          7.9450    -0.0800    -3.0060 ha         1 N4C       0.176000
     53 H18          9.0780    -1.6640    -4.5120 ha         1 N4C       0.148000
     54 H19          9.6420    -2.7530    -6.4110 hn         1 N4C       0.466633
     55 H20          9.6910    -3.8000    -5.1580 hn         1 N4C       0.466633
     56 H21          7.6880    -5.0690    -7.3440 hn         1 N4C       0.441900
     57 H22          5.2920    -3.4540    -5.4610 ha         1 N4C       0.148000
     58 H23          4.1700    -1.8680    -3.9500 ha         1 N4C       0.176000
     59 H24          0.4690     0.0190    -7.3360 ha         1 N4C       0.176000
     60 H25          1.2400     1.5600    -9.0940 ha         1 N4C       0.148000
     61 H26          2.8520     4.1190   -10.7500 hn         1 N4C       0.441900
     62 H27          4.9790     3.8040    -8.3490 hn         1 N4C       0.466633
     63 H28          4.3880     4.8530    -9.4540 hn         1 N4C       0.466633
     64 H29          3.9750     3.3520    -6.3120 ha         1 N4C       0.148000
     65 H30          3.1950     1.8090    -4.5600 ha         1 N4C       0.176000
     66 H33         -0.6590    -0.2680     6.4150 hn         1 N4C       0.459467
     67 H73          9.6010    -4.3660    -6.6860 hn         1 N4C       0.466633
     68 H43          3.9310     4.9630    -7.8840 hn         1 N4C       0.466633
@<TRIPOS>BOND
     1    22    20 2
     2    21    20 1
     3    20    19 1
     4    19    23 ar
     5    19    18 ar
     6    23    24 ar
     7    18    17 ar
     8    24    16 ar
     9    17    16 ar
    10    16    15 1
    11    27    26 1
    12    27    28 1
    13    25    26 ar
    14    25    14 ar
    15    15    14 1
    16    36    28 ar
    17    36    35 ar
    18    26    12 ar
    19    14    13 ar
    20    28    29 ar
    21    35    31 ar
    22    12    11 ar
    23    13    11 ar
    24    29    30 ar
    25    31    30 ar
    26    31    32 1
    27    11     2 1
    28    33    32 2
    29    32    34 1
    30     1     2 2
    31     2     3 1
    32     3     4 1
    33     4     5 1
    34     4    10 1
    35     5     6 1
    36    10     9 1
    37     6     7 1
    38     7     9 1
    39     7     8 1
    40     3    37 1
    41     4    38 1
    42     5    39 1
    43     5    40 1
    44     6    41 1
    45     6    42 1
    46     7    43 1
    47     8    44 1
    48     8    45 1
    49     9    46 1
    50     9    47 1
    51    10    48 1
    52    10    49 1
    53    12    50 1
    54    13    51 1
    55    17    52 1
    56    18    53 1
    57    21    54 1
    58    21    55 1
    59    22    56 1
    60    23    57 1
    61    24    58 1
    62    29    59 1
    63    30    60 1
    64    33    61 1
    65    34    62 1
    66    34    63 1
    67    35    64 1
    68    36    65 1
    69    66     8 1
    70    67    21 1
    71    68    34 1
@<TRIPOS>SUBSTRUCTURE
     1 N4C         1 TEMP              0 ****  ****    0 ROOT
