@<TRIPOS>MOLECULE
N4D
   45    48     1     0     0
SMALL
bcc


@<TRIPOS>ATOM
      1 C13          0.0000     0.0000     0.0000 ca         1 N4D      -0.107300
      2 C18          2.1130    -0.0050     3.6910 c          1 N4D       0.595700
      3 C17          3.3780     0.4970    -1.2650 ca         1 N4D       0.597200
      4 C16          5.4480     0.9220    -2.4410 ca         1 N4D       0.332800
      5 C15          1.3910     0.0000     0.0000 ca         1 N4D      -0.019400
      6 C19         -0.7510    -0.0010    -1.3060 c3         1 N4D       0.061200
      7 C20          2.1570    -0.0260     6.1270 c3         1 N4D       0.088300
      8 C11          4.1430     0.3910    -2.4430 ca         1 N4D      -0.570500
      9 C12          1.3810     0.0010     2.4060 ca         1 N4D      -0.138600
     10 C1           9.7680     1.7740    -4.9940 ca         1 N4D      -0.096000
     11 C2           9.1920     0.6000    -5.4430 ca         1 N4D      -0.092000
     12 C3           9.0840     2.5900    -4.1100 ca         1 N4D      -0.092000
     13 C4          -0.0150    -0.0100     2.3950 ca         1 N4D      -0.102000
     14 C5          -0.6950    -0.0040     1.1950 ca         1 N4D      -0.089000
     15 C6           7.9310     0.2390    -5.0120 ca         1 N4D      -0.087500
     16 C7           7.8230     2.2340    -3.6750 ca         1 N4D      -0.087500
     17 C8           2.0840     0.0000     1.2010 ca         1 N4D      -0.051000
     18 C9           3.9200    -0.1540    -3.7260 cc         1 N4D       0.469800
     19 C10          5.1510     1.5760    -0.2560 ca         1 N4D       0.714900
     20 C14          7.2420     1.0550    -4.1250 ca         1 N4D      -0.147200
     21 N21          4.9920     0.0270    -4.4450 nd         1 N4D      -0.648100
     22 N22          5.9040     1.5000    -1.3320 nb         1 N4D      -0.688000
     23 N23          3.9220     1.0910    -0.2100 nb         1 N4D      -0.731000
     24 N24          5.9630     0.6910    -3.6850 na         1 N4D       0.525100
     25 N25          2.0900    -0.0010    -1.2110 nu         1 N4D      -0.275300
     26 N26          1.4320    -0.0200     4.8540 ns         1 N4D      -0.202900
     27 O27          3.3290     0.0030     3.6980 o          1 N4D      -0.644100
     28 H19         -1.8130    -0.0860    -1.1120 hc         1 N4D       0.009367
     29 H19A        -0.5540     0.9230    -1.8370 hc         1 N4D       0.009367
     30 H19B        -0.4260    -0.8400    -1.9090 hc         1 N4D       0.009367
     31 H20          2.7740     0.8620     6.1960 h1         1 N4D       0.008700
     32 H20A         1.4490    -0.0380     6.9460 h1         1 N4D       0.008700
     33 H20B         2.7860    -0.9060     6.1810 h1         1 N4D       0.008700
     34 H2           9.7310    -0.0360    -6.1350 ha         1 N4D       0.106500
     35 H3           9.5380     3.5090    -3.7600 ha         1 N4D       0.106500
     36 H4          -0.5640    -0.0130     3.3290 ha         1 N4D       0.101000
     37 H5          -1.7780    -0.0080     1.1890 ha         1 N4D       0.108000
     38 H6           7.4800    -0.6810    -5.3640 ha         1 N4D       0.125000
     39 H7           7.2880     2.8730    -2.9830 ha         1 N4D       0.125000
     40 H8           3.1670    -0.0000     1.2040 ha         1 N4D       0.177000
     41 H9           3.0110    -0.6410    -4.0580 h4         1 N4D       0.006800
     42 H10          5.5550     2.0530     0.6290 h5         1 N4D       0.003100
     43 HN25         1.6740    -0.4030    -2.0280 hn         1 N4D       0.291800
     44 HN26         0.4320    -0.0500     4.8480 hn         1 N4D       0.175500
     45 H1          10.7570     2.0560    -5.3340 ha         1 N4D       0.104000
@<TRIPOS>BOND
     1     1     5 ar  
     2     1     6 1   
     3     1    14 ar  
     4     2     9 1   
     5     2    26 1   
     6     2    27 2   
     7     3     8 ar  
     8     3    23 ar  
     9     3    25 1   
    10     4     8 ar  
    11     4    22 ar  
    12     4    24 1   
    13     5    17 ar  
    14     5    25 1   
    15     6    28 1   
    16     6    29 1   
    17     6    30 1   
    18     7    26 1   
    19     7    31 1   
    20     7    32 1   
    21     7    33 1   
    22     8    18 1   
    23     9    13 ar  
    24     9    17 ar  
    25    10    11 ar  
    26    10    12 ar  
    27    10    45 1   
    28    11    15 ar  
    29    11    34 1   
    30    12    16 ar  
    31    12    35 1   
    32    13    14 ar  
    33    13    36 1   
    34    14    37 1   
    35    15    20 ar  
    36    15    38 1   
    37    16    20 ar  
    38    16    39 1   
    39    17    40 1   
    40    18    21 2   
    41    18    41 1   
    42    19    22 ar  
    43    19    23 ar  
    44    19    42 1   
    45    20    24 1   
    46    21    24 1   
    47    25    43 1   
    48    26    44 1   
@<TRIPOS>SUBSTRUCTURE
     1 N4D         1 TEMP              0 ****  ****    0 ROOT
