@<TRIPOS>MOLECULE
molecule
   26    26     1     0     0
SMALL
bcc


@<TRIPOS>ATOM
      1 O            0.0000     0.0000     0.0000 o          1 N4E      -0.597100
      2 C            1.2130     0.0000     0.0000 c          1 N4E       0.657100
      3 CM           1.9670     0.0000     1.3050 c3         1 N4E      -0.170100
      4 N            1.8870    -0.0060    -1.1680 ns         1 N4E      -0.479100
      5 C1           1.1890    -0.1090    -2.3780 ca         1 N4E       0.012600
      6 C6          -0.0560     0.4910    -2.5170 ca         1 N4E      -0.106000
      7 C5          -0.7430     0.3890    -3.7090 ca         1 N4E      -0.176000
      8 C4          -0.1900    -0.3130    -4.7710 ca         1 N4E       0.130100
      9 C3           1.0530    -0.9130    -4.6330 ca         1 N4E      -0.176000
     10 C2           1.7440    -0.8060    -3.4420 ca         1 N4E      -0.106000
     11 O4          -0.8670    -0.4140    -5.9460 os         1 N4E      -0.330900
     12 C12         -0.2390    -1.1510    -6.9960 c3         1 N4E       0.136400
     13 C13         -1.1430    -1.1550    -8.2290 c3         1 N4E      -0.093100
     14 HM           1.2830     0.2160     2.1170 hc         1 N4E       0.062700
     15 HMA          2.7410     0.7570     1.2740 hc         1 N4E       0.062700
     16 HMB          2.4180    -0.9720     1.4610 hc         1 N4E       0.062700
     17 HN           2.8830     0.0940    -1.1720 hn         1 N4E       0.321500
     18 H6          -0.4880     1.0400    -1.6880 ha         1 N4E       0.149000
     19 H5          -1.7140     0.8580    -3.8170 ha         1 N4E       0.141500
     20 H3           1.4860    -1.4590    -5.4630 ha         1 N4E       0.141500
     21 H2           2.7150    -1.2750    -3.3350 ha         1 N4E       0.149000
     22 H12         -0.0680    -2.1700    -6.6700 h1         1 N4E       0.032700
     23 H12A         0.7090    -0.6890    -7.2450 h1         1 N4E       0.032700
     24 H13         -0.6660    -1.7140    -9.0250 hc         1 N4E       0.048033
     25 H13A        -1.3130    -0.1360    -8.5560 hc         1 N4E       0.048033
     26 H13B        -2.0910    -1.6180    -7.9810 hc         1 N4E       0.048033
@<TRIPOS>BOND
     1     1     2 2
     2     2     3 1
     3     2     4 1
     4     4     5 1
     5     5     6 ar
     6     5    10 ar
     7     6     7 ar
     8     7     8 ar
     9     8     9 ar
    10     8    11 1
    11     9    10 ar
    12    11    12 1
    13    12    13 1
    14     3    14 1
    15     3    15 1
    16     3    16 1
    17     4    17 1
    18     6    18 1
    19     7    19 1
    20     9    20 1
    21    10    21 1
    22    12    22 1
    23    12    23 1
    24    13    24 1
    25    13    25 1
    26    13    26 1
@<TRIPOS>SUBSTRUCTURE
     1 N4E         1 TEMP              0 ****  ****    0 ROOT
