@<TRIPOS>MOLECULE
N4E
   26    26     1     0     0
SMALL
bcc


@<TRIPOS>ATOM
      1 O            0.0000     0.0000     0.0000 o          1 N4E      -0.637100
      2 C            1.2130     0.0000     0.0000 c          1 N4E       0.557100
      3 CM           1.9670     0.0000     1.3050 c3         1 N4E      -0.068100
      4 N            1.8870    -0.0060    -1.1680 ns         1 N4E      -0.034100
      5 C1           1.1890    -0.1090    -2.3780 ca         1 N4E      -0.136400
      6 C6          -0.0560     0.4910    -2.5170 ca         1 N4E      -0.074000
      7 C5          -0.7430     0.3890    -3.7090 ca         1 N4E      -0.161500
      8 C4          -0.1900    -0.3130    -4.7710 ca         1 N4E       0.144100
      9 C3           1.0530    -0.9130    -4.6330 ca         1 N4E      -0.161500
     10 C2           1.7440    -0.8060    -3.4420 ca         1 N4E      -0.074000
     11 O4          -0.8670    -0.4140    -5.9460 os         1 N4E      -0.305900
     12 C12         -0.2390    -1.1510    -6.9960 c3         1 N4E       0.202400
     13 C13         -1.1430    -1.1550    -8.2290 c3         1 N4E       0.000900
     14 HM           1.2830     0.2160     2.1170 hc         1 N4E       0.023033
     15 HMA          2.7410     0.7570     1.2740 hc         1 N4E       0.023033
     16 HMB          2.4180    -0.9720     1.4610 hc         1 N4E       0.023033
     17 HN           2.8830     0.0940    -1.1720 hn         1 N4E       0.164500
     18 H6          -0.4880     1.0400    -1.6880 ha         1 N4E       0.123500
     19 H5          -1.7140     0.8580    -3.8170 ha         1 N4E       0.119000
     20 H3           1.4860    -1.4590    -5.4630 ha         1 N4E       0.119000
     21 H2           2.7150    -1.2750    -3.3350 ha         1 N4E       0.123500
     22 H12         -0.0680    -2.1700    -6.6700 h1         1 N4E      -0.001300
     23 H12A         0.7090    -0.6890    -7.2450 h1         1 N4E      -0.001300
     24 H13         -0.6660    -1.7140    -9.0250 hc         1 N4E       0.010700
     25 H13A        -1.3130    -0.1360    -8.5560 hc         1 N4E       0.010700
     26 H13B        -2.0910    -1.6180    -7.9810 hc         1 N4E       0.010700
@<TRIPOS>BOND
     1     1     2 2   
     2     2     3 1   
     3     2     4 1   
     4     3    14 1   
     5     3    15 1   
     6     3    16 1   
     7     4     5 1   
     8     4    17 1   
     9     5     6 ar  
    10     5    10 ar  
    11     6     7 ar  
    12     6    18 1   
    13     7     8 ar  
    14     7    19 1   
    15     8     9 ar  
    16     8    11 1   
    17     9    10 ar  
    18     9    20 1   
    19    10    21 1   
    20    11    12 1   
    21    12    13 1   
    22    12    22 1   
    23    12    23 1   
    24    13    24 1   
    25    13    25 1   
    26    13    26 1   
@<TRIPOS>SUBSTRUCTURE
     1 N4E         1 TEMP              0 ****  ****    0 ROOT
