@<TRIPOS>MOLECULE
molecule
   66    69     1     0     0
SMALL
bcc


@<TRIPOS>ATOM
      1 C1           0.0000     0.0000     0.0000 c3         1 N4I       0.119500
      2 C2           1.5430     0.0000     0.0000 c3         1 N4I       0.226500
      3 C3           1.9440     0.0000     1.4910 c3         1 N4I       0.137800
      4 C4          -0.1480     0.8010    -5.4310 ca         1 N4I      -0.170600
      5 N4           0.7710     0.5820     2.1940 n7         1 N4I      -0.805200
      6 C5          -0.4010    -0.0000     1.4910 c3         1 N4I       0.141800
      7 C6          -3.0450    -3.1830    -1.1510 ca         1 N4I      -0.119000
      8 N6          -0.5100    -1.2070    -0.6660 n7         1 N4I      -0.803200
      9 C7          -1.8580    -0.9810    -1.2040 c3         1 N4I       0.203100
     10 C8          -2.3460    -2.2380    -1.8770 ca         1 N4I      -0.062300
     11 C9          -3.4930    -4.3400    -1.7720 ca         1 N4I       0.133100
     12 O10         -4.1810    -5.2720    -1.0600 oh         1 N4I      -0.509100
     13 C11         -3.2410    -4.5440    -3.1210 ca         1 N4I      -0.139000
     14 C12         -2.5420    -3.5950    -3.8420 ca         1 N4I      -0.131000
     15 C13         -2.0950    -2.4430    -3.2220 ca         1 N4I      -0.177000
     16 C14         -0.6400     2.8660     0.2730 ca         1 N4I      -0.133500
     17 C15         -1.8690     3.3430    -0.1410 ca         1 N4I      -0.089000
     18 C16         -1.9840     3.9960    -1.3550 ca         1 N4I      -0.176300
     19 C17         -3.3240     4.5160    -1.8080 c3         1 N4I       0.674200
     20 F18         -3.4940     5.8280    -1.3510 f          1 N4I      -0.220967
     21 F19         -3.3840     4.4970    -3.2040 f          1 N4I      -0.220967
     22 F20         -4.3390     3.7060    -1.2860 f          1 N4I      -0.220967
     23 N21          2.0510     1.2020    -0.6650 n3         1 N4I      -0.797500
     24 C22          1.8150     2.5220    -0.0720 c3         1 N4I       0.262100
     25 C23          0.4740     3.0420    -0.5250 ca         1 N4I      -0.089300
     26 C24         -0.8690     4.1720    -2.1530 ca         1 N4I      -0.089000
     27 C25          0.3610     3.6940    -1.7380 ca         1 N4I      -0.133500
     28 C26         -1.1400     0.7130    -6.5230 c          1 N4I       0.504700
     29 S27          2.8940     1.0720    -2.0840 sy         1 N4I       1.402200
     30 N28         -1.7050    -0.4720    -6.8270 nz         1 N4I      -0.680400
     31 O28          3.5770     2.3050    -2.2610 o          1 N4I      -0.604300
     32 O29          3.5570    -0.1850    -2.0420 o          1 N4I      -0.604300
     33 C30          1.7110     0.9670    -3.3840 ca         1 N4I      -0.245500
     34 C31          1.3640     2.1030    -4.0930 ca         1 N4I      -0.023500
     35 C32          0.4380     2.0270    -5.1130 ca         1 N4I      -0.091000
     36 O33         -1.4480     1.7100    -7.1470 o          1 N4I      -0.405100
     37 C34          0.2020    -0.3400    -4.7070 ca         1 N4I      -0.091000
     38 C35          1.1290    -0.2510    -3.6900 ca         1 N4I      -0.023500
     39 H1          -0.3740     0.8920    -0.4880 h1         1 N4I       0.059700
     40 H2           1.9170    -0.8920    -0.4870 h1         1 N4I       0.090700
     41 H3           2.1230    -1.0120     1.8330 h1         1 N4I       0.065200
     42 H3A          2.8200     0.6180     1.6450 h1         1 N4I       0.065200
     43 HN4          0.7710     0.2800     3.1480 hn         1 N4I       0.366800
     44 H5          -1.2770     0.6180     1.6450 h1         1 N4I       0.059200
     45 H5A         -0.5800    -1.0130     1.8320 h1         1 N4I       0.059200
     46 H6          -3.1920    -3.0480    -0.0860 ha         1 N4I       0.162000
     47 HN6          0.1070    -1.4640    -1.4100 hn         1 N4I       0.345800
     48 H7          -1.8290    -0.1730    -1.9250 h1         1 N4I       0.041700
     49 H7A         -2.5300    -0.7200    -0.3960 h1         1 N4I       0.041700
     50 HO10        -5.1050    -5.1000    -1.1280 ho         1 N4I       0.431000
     51 H11         -3.5900    -5.4460    -3.6080 ha         1 N4I       0.154000
     52 H12         -2.3440    -3.7530    -4.8960 ha         1 N4I       0.108000
     53 H13         -1.5470    -1.7000    -3.7890 ha         1 N4I       0.086000
     54 H14         -0.5500     2.3550     1.2240 ha         1 N4I       0.156500
     55 H15         -2.7430     3.2060     0.4840 ha         1 N4I       0.150500
     56 H22          1.8240     2.4410     1.0080 h1         1 N4I       0.098700
     57 H22A         2.5930     3.2060    -0.3900 h1         1 N4I       0.098700
     58 H24         -0.9580     4.6830    -3.1040 ha         1 N4I       0.150500
     59 H25          1.2340     3.8320    -2.3630 ha         1 N4I       0.156500
     60 HN28        -2.1750    -0.4020    -7.7070 hn         1 N4I       0.480800
     61 HN2A        -0.9950    -1.1750    -6.8830 hn         1 N4I       0.480800
     62 H31          1.8190     3.0540    -3.8460 ha         1 N4I       0.181000
     63 H32          0.1670     2.9180    -5.6680 ha         1 N4I       0.148500
     64 H34         -0.2520    -1.2950    -4.9460 ha         1 N4I       0.148500
     65 H35          1.4020    -1.1360    -3.1280 ha         1 N4I       0.181000
     66 H283        -2.3650    -0.7200    -6.1160 hn         1 N4I       0.480800
@<TRIPOS>BOND
     1     1     2 1
     2     1     6 1
     3     1     8 1
     4     2     3 1
     5     2    23 1
     6     3     5 1
     7     4    28 1
     8     4    35 ar
     9     4    37 ar
    10     5     6 1
    11     7    10 ar
    12     7    11 ar
    13     8     9 1
    14     9    10 1
    15    10    15 ar
    16    11    12 1
    17    11    13 ar
    18    13    14 ar
    19    14    15 ar
    20    16    17 ar
    21    16    25 ar
    22    17    18 ar
    23    18    19 1
    24    18    26 ar
    25    19    20 1
    26    19    21 1
    27    19    22 1
    28    23    24 1
    29    23    29 1
    30    24    25 1
    31    25    27 ar
    32    26    27 ar
    33    28    30 1
    34    28    36 2
    35    29    31 2
    36    29    32 2
    37    29    33 1
    38    33    34 ar
    39    33    38 ar
    40    34    35 ar
    41    37    38 ar
    42     1    39 1
    43     2    40 1
    44     3    41 1
    45     3    42 1
    46     5    43 1
    47     6    44 1
    48     6    45 1
    49     7    46 1
    50     8    47 1
    51     9    48 1
    52     9    49 1
    53    12    50 1
    54    13    51 1
    55    14    52 1
    56    15    53 1
    57    16    54 1
    58    17    55 1
    59    24    56 1
    60    24    57 1
    61    26    58 1
    62    27    59 1
    63    30    60 1
    64    30    61 1
    65    34    62 1
    66    35    63 1
    67    37    64 1
    68    38    65 1
    69    66    30 1
@<TRIPOS>SUBSTRUCTURE
     1 N4I         1 TEMP              0 ****  ****    0 ROOT
