@<TRIPOS>MOLECULE
N4P
   43    42     1     0     0
SMALL
bcc


@<TRIPOS>ATOM
      1 C4           0.0000     0.0000     0.0000 c3         1 N4P      -0.024400
      2 C5           1.5300     0.0000     0.0000 c3         1 N4P       0.151800
      3 N1          -2.5290     0.0010     2.8280 nz         1 N4P       0.092400
      4 C3          -0.5090     0.0000     1.4430 c3         1 N4P      -0.033400
      5 C2          -2.0390     0.0010     1.4430 c3         1 N4P      -0.047200
      6 N6           2.0200    -0.0000    -1.3850 n3         1 N4P      -0.536600
      7 C7           1.6700     1.2530    -2.0670 c3         1 N4P       0.155800
      8 C8           1.8260     1.0710    -3.5790 c3         1 N4P      -0.042400
      9 C9           1.5250     2.3950    -4.2850 c3         1 N4P      -0.046700
     10 N10          1.6740     2.2200    -5.7360 nz         1 N4P       0.092400
     11 C11          3.4690    -0.2390    -1.4320 c3         1 N4P       0.155800
     12 C12          3.7500    -1.7210    -1.1810 c3         1 N4P      -0.042400
     13 C13          5.2490    -1.9880    -1.3300 c3         1 N4P      -0.046700
     14 N14          5.5190    -3.4120    -1.0890 nz         1 N4P       0.092400
     15 H1          -0.3610     0.8850    -0.5110 hc         1 N4P       0.035200
     16 H2          -0.3610    -0.8850    -0.5100 hc         1 N4P       0.035200
     17 H3           1.8920     0.8850     0.5110 h1         1 N4P       0.024200
     18 H4           1.8920    -0.8840     0.5110 h1         1 N4P       0.024200
     19 H5          -2.1980    -0.8180     3.2990 hn         1 N4P       0.230467
     20 H6          -2.1920     0.8160     3.3010 hn         1 N4P       0.230467
     21 H8          -0.1480    -0.8850     1.9530 hc         1 N4P       0.038200
     22 H9          -0.1470     0.8840     1.9530 hc         1 N4P       0.038200
     23 H10         -2.4000     0.8850     0.9330 hx         1 N4P       0.086700
     24 H11         -2.4010    -0.8840     0.9330 hx         1 N4P       0.086700
     25 H13          0.6440     1.5140    -1.8390 h1         1 N4P       0.030450
     26 H14          2.3280     2.0440    -1.7290 h1         1 N4P       0.030450
     27 H15          1.1350     0.3120    -3.9250 hc         1 N4P       0.040950
     28 H16          2.8410     0.7650    -3.8030 hc         1 N4P       0.040950
     29 H17          0.5100     2.7010    -4.0610 hx         1 N4P       0.088450
     30 H18          2.2160     3.1540    -3.9390 hx         1 N4P       0.088450
     31 H19          1.0580     1.4970    -6.0510 hn         1 N4P       0.230300
     32 H20          2.6200     1.9660    -5.9460 hn         1 N4P       0.230300
     33 H22          3.8490     0.0410    -2.4070 h1         1 N4P       0.030450
     34 H23          3.9580     0.3560    -0.6700 h1         1 N4P       0.030450
     35 H24          3.4340    -1.9830    -0.1780 hc         1 N4P       0.040950
     36 H25          3.2030    -2.3190    -1.8990 hc         1 N4P       0.040950
     37 H26          5.7960    -1.3900    -0.6110 hx         1 N4P       0.088450
     38 H27          5.5650    -1.7250    -2.3330 hx         1 N4P       0.088450
     39 H28          5.0010    -3.9650    -1.7430 hn         1 N4P       0.230300
     40 H29          5.2430    -3.6510    -0.1570 hn         1 N4P       0.230300
     41 H131        -3.5290     0.0070     2.8290 hn         1 N4P       0.230467
     42 H103         1.4590     3.0800    -6.2000 hn         1 N4P       0.230300
     43 H143         6.4980    -3.5890    -1.1990 hn         1 N4P       0.230300
@<TRIPOS>BOND
     1     1     2 1   
     2     1     4 1   
     3     1    15 1   
     4     1    16 1   
     5     2     6 1   
     6     2    17 1   
     7     2    18 1   
     8     3     5 1   
     9     3    19 1   
    10     3    20 1   
    11     3    41 1   
    12     4     5 1   
    13     4    21 1   
    14     4    22 1   
    15     5    23 1   
    16     5    24 1   
    17     6     7 1   
    18     6    11 1   
    19     7     8 1   
    20     7    25 1   
    21     7    26 1   
    22     8     9 1   
    23     8    27 1   
    24     8    28 1   
    25     9    10 1   
    26     9    29 1   
    27     9    30 1   
    28    10    31 1   
    29    10    32 1   
    30    10    42 1   
    31    11    12 1   
    32    11    33 1   
    33    11    34 1   
    34    12    13 1   
    35    12    35 1   
    36    12    36 1   
    37    13    14 1   
    38    13    37 1   
    39    13    38 1   
    40    14    39 1   
    41    14    40 1   
    42    14    43 1   
@<TRIPOS>SUBSTRUCTURE
     1 N4P         1 TEMP              0 ****  ****    0 ROOT
