@<TRIPOS>MOLECULE
N4R
   48    49     1     0     0
SMALL
bcc


@<TRIPOS>ATOM
      1 O2           0.0000     0.0000     0.0000 o          1 N4R      -0.699100
      2 C12          1.2160     0.0000     0.0000 c          1 N4R       0.587100
      3 N2           1.8900     0.0000     1.1690 ns         1 N4R      -0.066100
      4 C13          1.1930     0.1120     2.3770 ca         1 N4R      -0.070400
      5 C18          1.6640    -0.5320     3.5130 ca         1 N4R      -0.121500
      6 C17          0.9760    -0.4190     4.7050 ca         1 N4R      -0.082500
      7 C16         -0.1810     0.3360     4.7680 ca         1 N4R      -0.118000
      8 C15         -0.6530     0.9800     3.6380 ca         1 N4R      -0.082500
      9 C14          0.0350     0.8740     2.4450 ca         1 N4R      -0.121500
     10 N            1.8900    -0.0050    -1.1660 n          1 N4R      -0.169800
     11 C3           3.3550    -0.0040    -1.1660 c3         1 N4R       0.037000
     12 C2           3.8650    -1.4470    -1.1590 c3         1 N4R      -0.058400
     13 C1           5.3960    -1.4470    -1.1590 c3         1 N4R      -0.024400
     14 C            5.9060    -2.8890    -1.1520 c3         1 N4R       0.007900
     15 C4           1.1570    -0.0110    -2.4350 c3         1 N4R       0.122300
     16 C5           0.9060     1.4070    -2.8770 ca         1 N4R      -0.103300
     17 C10          1.8310     2.0530    -3.6790 ca         1 N4R      -0.095500
     18 C9           1.6060     3.3520    -4.0870 ca         1 N4R      -0.064500
     19 C8           0.4430     4.0140    -3.6890 ca         1 N4R      -0.150600
     20 C7          -0.4850     3.3560    -2.8800 ca         1 N4R      -0.064500
     21 C6          -0.2510     2.0560    -2.4840 ca         1 N4R      -0.095500
     22 C11          0.1970     5.4060    -4.1230 c          1 N4R       0.595700
     23 O            1.0070     5.9760    -4.8270 o          1 N4R      -0.622100
     24 N1          -0.9260     6.0420    -3.7370 ns         1 N4R      -0.060400
     25 O1          -1.1630     7.3760    -4.1520 oh         1 N4R      -0.437100
     26 H2           2.8900    -0.0370     1.1690 hn         1 N4R       0.175500
     27 H18          2.5710    -1.1240     3.4640 ha         1 N4R       0.121500
     28 H14         -0.3350     1.3780     1.5600 ha         1 N4R       0.121500
     29 H17          1.3430    -0.9220     5.5920 ha         1 N4R       0.101500
     30 H16         -0.7210     0.4220     5.7030 ha         1 N4R       0.102000
     31 H15         -1.5580     1.5720     3.6910 ha         1 N4R       0.101500
     32 H31C         3.7160     0.5110    -0.2840 h1         1 N4R       0.027700
     33 H32C         3.7160     0.5020    -2.0530 h1         1 N4R       0.027700
     34 H41C         0.2100    -0.5210    -2.3030 h1         1 N4R       0.038200
     35 H42C         1.7420    -0.5260    -3.1880 h1         1 N4R       0.038200
     36 H21C         3.5040    -1.9530    -0.2710 hc         1 N4R       0.024200
     37 H22C         3.5040    -1.9620    -2.0400 hc         1 N4R       0.024200
     38 H11C         5.7570    -0.9320    -0.2760 hc         1 N4R       0.012700
     39 H12C         5.7570    -0.9400    -2.0450 hc         1 N4R       0.012700
     40 HC1          5.5690    -3.3950    -2.0490 hc         1 N4R       0.003367
     41 HC2          6.9880    -2.8890    -1.1220 hc         1 N4R       0.003367
     42 HC3          5.5200    -3.4040    -0.2810 hc         1 N4R       0.003367
     43 H10          2.7330     1.5380    -3.9860 ha         1 N4R       0.119500
     44 H6          -0.9710     1.5450    -1.8560 ha         1 N4R       0.119500
     45 H9           2.3310     3.8570    -4.7140 ha         1 N4R       0.114000
     46 H7          -1.3900     3.8640    -2.5700 ha         1 N4R       0.114000
     47 H1          -1.5930     5.5730    -3.1570 hn         1 N4R       0.162500
     48 HA          -1.9960     7.6660    -3.8170 ho         1 N4R       0.391000
@<TRIPOS>BOND
     1     1     2 2   
     2     2     3 1   
     3     2    10 1   
     4     3     4 1   
     5     3    26 1   
     6     4     5 ar  
     7     4     9 ar  
     8     5     6 ar  
     9     5    27 1   
    10     6     7 ar  
    11     6    29 1   
    12     7     8 ar  
    13     7    30 1   
    14     8     9 ar  
    15     8    31 1   
    16     9    28 1   
    17    10    11 1   
    18    10    15 1   
    19    11    12 1   
    20    11    32 1   
    21    11    33 1   
    22    12    13 1   
    23    12    36 1   
    24    12    37 1   
    25    13    14 1   
    26    13    38 1   
    27    13    39 1   
    28    14    40 1   
    29    14    41 1   
    30    14    42 1   
    31    15    16 1   
    32    15    34 1   
    33    15    35 1   
    34    16    17 ar  
    35    16    21 ar  
    36    17    18 ar  
    37    17    43 1   
    38    18    19 ar  
    39    18    45 1   
    40    19    20 ar  
    41    19    22 1   
    42    20    21 ar  
    43    20    46 1   
    44    21    44 1   
    45    22    23 2   
    46    22    24 1   
    47    24    25 1   
    48    24    47 1   
    49    25    48 1   
@<TRIPOS>SUBSTRUCTURE
     1 N4R         1 TEMP              0 ****  ****    0 ROOT
