@<TRIPOS>MOLECULE
molecule
   47    50     1     0     0
SMALL
bcc


@<TRIPOS>ATOM
      1 C1           0.0000     0.0000     0.0000 ca         1 N4T       0.131900
      2 C2           1.3820     0.0000     0.0000 ca         1 N4T      -0.133000
      3 C3           2.0760     0.0000     1.2100 ca         1 N4T      -0.074800
      4 C4           1.3690    -0.0060     2.4150 ca         1 N4T       0.132900
      5 C5          -0.0140    -0.0020     2.4010 ca         1 N4T      -0.133000
      6 C6          -0.6950    -0.0020     1.1990 ca         1 N4T      -0.126000
      7 C10          3.5540     0.0010     1.2180 ce         1 N4T      -0.084400
      8 C11          4.4180    -1.1900     1.5400 c3         1 N4T       0.117200
      9 N12          5.8180    -0.7560     1.4300 n          1 N4T      -0.459800
     10 C13          5.7670     0.6650     1.0560 c3         1 N4T       0.188200
     11 C14          4.3140     1.0450     0.9410 c2         1 N4T      -0.120200
     12 C17          6.4360     1.5080     2.1110 ca         1 N4T      -0.106300
     13 C19          6.2580     1.2100     3.4490 ca         1 N4T      -0.110000
     14 C20          6.8760     1.9810     4.4160 ca         1 N4T      -0.120000
     15 C21          7.6630     3.0550     4.0450 ca         1 N4T      -0.109000
     16 C22          7.8350     3.3570     2.7070 ca         1 N4T      -0.120000
     17 C23          7.2220     2.5820     1.7400 ca         1 N4T      -0.110000
     18 C8           6.9190    -1.5030     1.6370 c          1 N4T       0.669100
     19 C7           6.7850    -2.9530     2.0250 c3         1 N4T       0.067500
     20 C35          6.4820    -3.0540     3.5210 cx         1 N4T      -0.186700
     21 F40          2.0350    -0.0070     3.5910 f          1 N4T      -0.135900
     22 F41         -0.6730     0.0000    -1.1710 f          1 N4T      -0.123900
     23 O2           8.0200    -1.0090     1.5100 o          1 N4T      -0.584100
     24 C15          6.3080    -4.4560     4.1130 cx         1 N4T      -0.115400
     25 N1           8.0400    -3.6570     1.7300 nz         1 N4T      -0.799600
     26 C12          7.5680    -3.6440     4.4230 cx         1 N4T      -0.115400
     27 H2           1.9250     0.0030    -0.9370 ha         1 N4T       0.155000
     28 H5          -0.5630    -0.0060     3.3340 ha         1 N4T       0.164000
     29 H6          -1.7790    -0.0000     1.1940 ha         1 N4T       0.165000
     30 H111         4.2240    -1.9870     0.8320 h1         1 N4T       0.059200
     31 H112         4.2160    -1.5280     2.5490 h1         1 N4T       0.059200
     32 H13          6.2570     0.8070     0.1010 h1         1 N4T       0.083700
     33 H14          3.9990     1.7610     0.1920 ha         1 N4T       0.179000
     34 H19          5.6420     0.3680     3.7400 ha         1 N4T       0.126000
     35 H20          6.7390     1.7460     5.4650 ha         1 N4T       0.140000
     36 H21          8.1450     3.6610     4.8030 ha         1 N4T       0.142000
     37 H22          8.4520     4.1990     2.4170 ha         1 N4T       0.140000
     38 H23          7.3580     2.8180     0.6910 ha         1 N4T       0.126000
     39 H7           5.9770    -3.4040     1.4620 hx         1 N4T       0.122700
     40 H35          5.8740    -2.2880     3.9860 hc         1 N4T       0.143700
     41 H151         6.4400    -5.2760     3.4180 hc         1 N4T       0.089950
     42 H152         5.5930    -4.5360     4.9230 hc         1 N4T       0.089950
     43 HN11         7.9590    -4.6140     2.0110 hn         1 N4T       0.464800
     44 HN12         8.7910    -3.2250     2.2300 hn         1 N4T       0.464800
     45 H121         7.6230    -3.2290     5.4220 hc         1 N4T       0.089950
     46 H122         8.4700    -3.9690     3.9170 hc         1 N4T       0.089950
     47 H131         8.2210    -3.6180     0.7460 hn         1 N4T       0.464800
@<TRIPOS>BOND
     1     1     2 ar
     2     1     6 ar
     3     1    22 1
     4     2     3 ar
     5     2    27 1
     6     3     4 ar
     7     3     7 1
     8     4     5 ar
     9     4    21 1
    10     5     6 ar
    11     5    28 1
    12     6    29 1
    13     7     8 1
    14     7    11 2
    15     8     9 1
    16     8    30 1
    17     8    31 1
    18     9    10 1
    19     9    18 1
    20    10    11 1
    21    10    12 1
    22    10    32 1
    23    11    33 1
    24    12    13 ar
    25    12    17 ar
    26    13    14 ar
    27    13    34 1
    28    14    15 ar
    29    14    35 1
    30    15    16 ar
    31    15    36 1
    32    16    17 ar
    33    16    37 1
    34    17    38 1
    35    18    19 1
    36    18    23 2
    37    19    20 1
    38    19    25 1
    39    19    39 1
    40    20    24 1
    41    20    26 1
    42    20    40 1
    43    24    26 1
    44    24    41 1
    45    24    42 1
    46    25    43 1
    47    25    44 1
    48    26    45 1
    49    26    46 1
    50    47    25 1
@<TRIPOS>SUBSTRUCTURE
     1 N4T         1 TEMP              0 ****  ****    0 ROOT
