@<TRIPOS>MOLECULE
N50
   33    33     1     0     0
SMALL
bcc


@<TRIPOS>ATOM
      1 N1          0.1390   -0.3840   -0.1700 nb        1 N50     -0.732000
      2 O1          2.1490   -0.4480   -1.2550 os        1 N50     -0.416100
      3 C01         3.5760   -0.3970   -1.2450 c3        1 N50      0.125700
      4 O2          2.0670    0.2310    3.4580 os        1 N50     -0.439100
      5 C02         3.4930    0.3130    3.5060 c3        1 N50      0.124700
      6 N2          2.2230   -0.1040    1.1090 nb        1 N50     -0.817000
      7 C1          1.5020   -0.3030   -0.0420 ca        1 N50      0.877300
      8 C2          1.4740    0.0270    2.2340 ca        1 N50      0.683600
      9 C3          0.0500   -0.0350    2.2410 ca        1 N50     -0.342900
     10 C4         -0.7290    0.1070    3.4850 c3        1 N50     -0.033800
     11 C5         -0.5680   -0.2480    0.9840 ca        1 N50      0.527100
     12 C11        -2.0300   -0.3720    0.9410 ce        1 N50     -0.223800
     13 C12        -2.8500    0.1630    0.0260 c2        1 N50     -0.114400
     14 C13        -2.4210    1.0320   -1.1190 c3        1 N50      0.165100
     15 C14        -4.3300   -0.0580    0.0670 c3        1 N50      0.165100
     16 O3         -2.2600    0.2950   -2.3140 oh        1 N50     -0.602800
     17 O4         -4.6710   -0.8920    1.1640 oh        1 N50     -0.602800
     18 H1          3.9980   -1.2210   -0.6230 h1        1 N50      0.053033
     19 H2          3.9350    0.5960   -0.8830 h1        1 N50      0.053033
     20 H3          3.8300   -0.5420   -2.3270 h1        1 N50      0.053033
     21 H4          3.8580    1.1730    2.8960 h1        1 N50      0.052700
     22 H5          3.9530   -0.6420    3.1580 h1        1 N50      0.052700
     23 H6          3.6950    0.4800    4.5950 h1        1 N50      0.052700
     24 H7         -0.1000    0.5290    4.3070 hc        1 N50      0.051700
     25 H8         -1.6060    0.7840    3.3240 hc        1 N50      0.051700
     26 H9         -1.1150   -0.8910    3.8140 hc        1 N50      0.051700
     27 H10        -2.4450   -0.9780    1.7700 ha        1 N50      0.163000
     28 H13        -3.2270    1.7800   -1.3630 h1        1 N50      0.047450
     29 H14        -1.4790    1.5880   -0.8680 h1        1 N50      0.047450
     30 H15        -4.8570    0.9310    0.1800 h1        1 N50      0.047450
     31 H16        -4.6460   -0.5330   -0.9030 h1        1 N50      0.047450
     32 H17        -1.5120   -0.3040   -2.1900 ho        1 N50      0.415000
     33 H18        -5.5850   -1.1650    1.0240 ho        1 N50      0.415000
@<TRIPOS>BOND
     1    1    7 ar  
     2    1   11 ar  
     3    2    3 1   
     4    2    7 1   
     5    3   18 1   
     6    3   19 1   
     7    3   20 1   
     8    4    5 1   
     9    4    8 1   
    10    5   21 1   
    11    5   22 1   
    12    5   23 1   
    13    6    7 ar  
    14    6    8 ar  
    15    8    9 ar  
    16    9   10 1   
    17    9   11 ar  
    18   10   24 1   
    19   10   25 1   
    20   10   26 1   
    21   11   12 1   
    22   12   13 2   
    23   12   27 1   
    24   13   14 1   
    25   13   15 1   
    26   14   16 1   
    27   14   28 1   
    28   14   29 1   
    29   15   17 1   
    30   15   30 1   
    31   15   31 1   
    32   16   32 1   
    33   17   33 1   
@<TRIPOS>SUBSTRUCTURE
     1 N50         1 TEMP              0 ****  ****    0 ROOT
