@<TRIPOS>MOLECULE
molecule
   33    33     1     0     0
SMALL
bcc


@<TRIPOS>ATOM
      1 N1           0.0000     0.0000     0.0000 nb         1 N50      -0.789000
      2 O1           1.9790    -0.0010    -1.1840 os         1 N50      -0.416100
      3 C01          3.4070     0.0000    -1.1330 c3         1 N50       0.141700
      4 O2           2.1370     0.0030     3.4500 os         1 N50      -0.430100
      5 C02          3.5600     0.0030     3.3170 c3         1 N50       0.135700
      6 N2           2.0200     0.0000     1.1240 nb         1 N50      -0.891000
      7 C1           1.3210     0.0000     0.0000 ca         1 N50       0.929300
      8 C2           1.4120     0.0010     2.3050 ca         1 N50       0.715600
      9 C3           0.0210     0.0010     2.3530 ca         1 N50      -0.347900
     10 C4          -0.7060     0.0020     3.6720 c3         1 N50      -0.022800
     11 C5          -0.6820     0.0010     1.1470 ca         1 N50       0.489100
     12 C11         -2.1590     0.0010     1.1410 ce         1 N50      -0.407800
     13 C12         -2.8180     0.1400    -0.0010 c2         1 N50       0.053600
     14 C13         -2.0750     0.5130    -1.2590 c3         1 N50       0.142100
     15 C14         -4.3090    -0.0750    -0.0430 c3         1 N50       0.142100
     16 O3          -1.8260    -0.6630    -2.0320 oh         1 N50      -0.574800
     17 O4          -4.7770    -0.4170     1.2630 oh         1 N50      -0.574800
     18 H1           3.7500    -0.8850    -0.6100 h1         1 N50       0.047033
     19 H2           3.7490     0.8840    -0.6080 h1         1 N50       0.047033
     20 H3           3.8050     0.0020    -2.1400 h1         1 N50       0.047033
     21 H4           3.8730    -0.8820     2.7750 h1         1 N50       0.047367
     22 H5           4.0150     0.0040     4.3000 h1         1 N50       0.047367
     23 H6           3.8720     0.8870     2.7740 h1         1 N50       0.047367
     24 H7           0.0010    -0.1650     4.4750 hc         1 N50       0.052033
     25 H8          -1.4490    -0.7870     3.6750 hc         1 N50       0.052033
     26 H9          -1.1940     0.9580     3.8140 hc         1 N50       0.052033
     27 H10         -1.6160     0.9380     1.1790 ha         1 N50       0.278000
     28 H13         -2.6720     1.2060    -1.8390 h1         1 N50       0.048950
     29 H14         -1.1330     0.9790    -0.9970 h1         1 N50       0.048950
     30 H15         -4.5390    -0.8790    -0.7310 h1         1 N50       0.048950
     31 H16         -4.7960     0.8340    -0.3740 h1         1 N50       0.048950
     32 H17         -1.9300    -0.4650    -2.9480 ho         1 N50       0.394500
     33 H18         -5.7050    -0.5820     1.2310 ho         1 N50       0.394500
@<TRIPOS>BOND
     1     3     2 1
     2     2     7 1
     3    15    13 1
     4    15    17 1
     5     7     6 ar
     6     7     1 ar
     7     6     8 ar
     8     5     4 1
     9     1    11 ar
    10    13    14 1
    11    13    12 2
    12     8     4 1
    13     8     9 ar
    14    14    16 1
    15    11     9 ar
    16    11    12 1
    17     9    10 1
    18     3    18 1
    19     3    19 1
    20     3    20 1
    21     5    21 1
    22     5    22 1
    23     5    23 1
    24    10    24 1
    25    10    25 1
    26    10    26 1
    27    12    27 1
    28    14    28 1
    29    14    29 1
    30    15    30 1
    31    15    31 1
    32    16    32 1
    33    17    33 1
@<TRIPOS>SUBSTRUCTURE
     1 N50         1 TEMP              0 ****  ****    0 ROOT
