@<TRIPOS>MOLECULE
molecule
   78    83     1     0     0
SMALL
bcc


@<TRIPOS>ATOM
      1 C1           0.0000     0.0000     0.0000 ca         1 N53       0.090100
      2 C2           1.3880     0.0000     0.0000 ca         1 N53      -0.139500
      3 C3           2.0780     0.0000     1.1970 ca         1 N53      -0.113500
      4 C4           1.3870     0.0010     2.3950 ca         1 N53      -0.126000
      5 C5           0.0040     0.0010     2.3980 ca         1 N53      -0.113500
      6 C6          -0.6910     0.0010     1.2040 ca         1 N53      -0.139500
      7 C7           0.1770    -3.3430    -2.3430 ca         1 N53      -0.119600
      8 C8           0.0850    -2.2170    -1.5240 ca         1 N53      -0.145000
      9 C9          -0.5880    -1.0930    -1.9710 ca         1 N53       0.132100
     10 C10         -1.1700    -1.0880    -3.2320 ca         1 N53      -0.125000
     11 C11         -1.0790    -2.2020    -4.0450 ca         1 N53      -0.102000
     12 C12         -0.4100    -3.3280    -3.6090 ca         1 N53      -0.139000
     13 C13          2.2820   -13.8140    -8.1440 ca         1 N53      -0.088300
     14 C14          3.4910   -13.9470    -8.8000 ca         1 N53      -0.127000
     15 C15          3.6080   -14.8230    -9.8630 ca         1 N53      -0.128000
     16 C16          2.5160   -15.5670   -10.2700 ca         1 N53      -0.133000
     17 C17          1.3070   -15.4340    -9.6130 ca         1 N53      -0.128000
     18 C18          1.1890   -14.5560    -8.5510 ca         1 N53      -0.127000
     19 N19          1.5360   -10.5740    -6.3530 n          1 N53      -0.501800
     20 C20          1.6340   -11.5140    -7.4810 c3         1 N53       0.148700
     21 C21          0.2370   -11.6950    -8.0840 c3         1 N53       0.142800
     22 N22         -0.3230   -10.3780    -8.4200 n3         1 N53      -0.731600
     23 C23         -0.5020    -9.5540    -7.2170 c3         1 N53       0.145800
     24 C24          0.8640    -9.2850    -6.5770 c3         1 N53       0.050000
     25 C25          2.5750    -8.7990    -2.1220 cc         1 N53       0.347600
     26 C26          1.5080    -8.6160    -4.2190 c3         1 N53       0.191300
     27 N27          2.1040    -9.9550    -4.1750 n          1 N53      -0.504800
     28 C28          2.7670   -10.0910    -2.8750 c3         1 N53       0.133100
     29 N29          2.8470    -8.1950    -0.9910 nd         1 N53      -0.476800
     30 N30          2.2890    -6.9110    -1.0290 na         1 N53      -0.032600
     31 C31          1.6680    -6.7630    -2.2270 cd         1 N53       0.106300
     32 C33          4.2600   -10.3540    -3.0800 c3         1 N53      -0.097600
     33 C34          2.0450   -10.8880    -5.1450 c          1 N53       0.820100
     34 O35          2.4510   -12.0140    -4.9300 o          1 N53      -0.658100
     35 C36         -1.5840   -10.5150    -9.1580 c3         1 N53       0.153100
     36 C37          2.1560   -12.8630    -6.9810 c3         1 N53      -0.038100
     37 N38          0.9870    -5.6300    -2.6690 ns         1 N53      -0.452100
     38 O40          1.4160    -4.5530    -0.7740 o          1 N53      -0.609100
     39 O41         -0.6810     0.0050    -1.1750 os         1 N53      -0.241200
     40 C42          1.8290    -7.9270    -2.9170 cc         1 N53      -0.407600
     41 H2           1.9300    -0.0010    -0.9380 ha         1 N53       0.144500
     42 H6          -1.7750     0.0010     1.2070 ha         1 N53       0.144500
     43 H3           3.1610    -0.0000     1.1970 ha         1 N53       0.138000
     44 H4           1.9300     0.0010     3.3330 ha         1 N53       0.136000
     45 H5          -0.5350     0.0020     3.3380 ha         1 N53       0.138000
     46 H8           0.5400    -2.2230    -0.5400 ha         1 N53       0.174000
     47 H12         -0.3410    -4.1990    -4.2490 ha         1 N53       0.124000
     48 H10         -1.6960    -0.2070    -3.5800 ha         1 N53       0.152000
     49 H11         -1.5350    -2.1920    -5.0280 ha         1 N53       0.142000
     50 H14          4.3480   -13.3650    -8.4820 ha         1 N53       0.130000
     51 H18          0.2410   -14.4530    -8.0370 ha         1 N53       0.130000
     52 H371         3.1270   -12.7260    -6.5200 hc         1 N53       0.086200
     53 H372         1.4650   -13.2710    -6.2540 hc         1 N53       0.086200
     54 H15          4.5560   -14.9270   -10.3770 ha         1 N53       0.127000
     55 H16          2.6070   -16.2540   -11.1020 ha         1 N53       0.127000
     56 H17          0.4500   -16.0160    -9.9320 ha         1 N53       0.127000
     57 H20          2.3040   -11.1120    -8.2310 h1         1 N53       0.064700
     58 H241         1.4620    -8.6740    -7.2420 h1         1 N53       0.073700
     59 H242         0.7270    -8.7770    -5.6300 h1         1 N53       0.073700
     60 H211        -0.4060   -12.1870    -7.3640 h1         1 N53       0.049200
     61 H212         0.3080   -12.2950    -8.9830 h1         1 N53       0.049200
     62 H231        -1.1340   -10.0790    -6.5110 h1         1 N53       0.037200
     63 H232        -0.9630    -8.6120    -7.4910 h1         1 N53       0.037200
     64 H361        -2.3030   -11.0500    -8.5490 h1         1 N53       0.032700
     65 H362        -1.4080   -11.0630   -10.0750 h1         1 N53       0.032700
     66 H363        -1.9730    -9.5320    -9.3940 h1         1 N53       0.032700
     67 H261         0.4330    -8.6970    -4.3340 h1         1 N53       0.044200
     68 H262         1.9290    -8.0540    -5.0440 h1         1 N53       0.044200
     69 H321         2.4040   -11.1570    -1.0450 hc         1 N53       0.051700
     70 H322         1.0620   -11.2090    -2.1960 hc         1 N53       0.051700
     71 H323         2.5090   -12.1870    -2.4800 hc         1 N53       0.051700
     72 H331         4.4070   -11.3810    -3.3930 hc         1 N53       0.051700
     73 H332         4.6430    -9.6860    -3.8420 hc         1 N53       0.051700
     74 H333         4.7880   -10.1810    -2.1500 hc         1 N53       0.051700
     75 H30          2.3960    -6.2020    -0.3300 hn         1 N53       0.368700
     76 H38          0.5380    -5.6330    -3.5630 hn         1 N53       0.345500
     77 C39          0.9000    -4.5440    -1.8750 c          1 N53       0.685700
     78 C32          2.1400   -11.2450    -2.0920 c3         1 N53      -0.097600
@<TRIPOS>BOND
     1     1     2 ar
     2     1     6 ar
     3     1    39 1
     4     2     3 ar
     5     3     4 ar
     6     4     5 ar
     7     5     6 ar
     8     7     8 ar
     9     7    12 ar
    10     7    77 1
    11     8     9 ar
    12     9    10 ar
    13     9    39 1
    14    10    11 ar
    15    11    12 ar
    16    13    14 ar
    17    13    18 ar
    18    13    36 1
    19    14    15 ar
    20    15    16 ar
    21    16    17 ar
    22    17    18 ar
    23    19    20 1
    24    19    24 1
    25    19    33 1
    26    20    21 1
    27    20    36 1
    28    21    22 1
    29    22    23 1
    30    22    35 1
    31    23    24 1
    32    25    28 1
    33    25    29 2
    34    25    40 1
    35    26    27 1
    36    26    40 1
    37    27    28 1
    38    27    33 1
    39    28    78 1
    40    28    32 1
    41    29    30 1
    42    30    31 1
    43    31    37 1
    44    31    40 2
    45    33    34 2
    46    37    77 1
    47    77    38 2
    48     2    41 1
    49     6    42 1
    50     3    43 1
    51     4    44 1
    52     5    45 1
    53     8    46 1
    54    12    47 1
    55    10    48 1
    56    11    49 1
    57    14    50 1
    58    18    51 1
    59    36    52 1
    60    36    53 1
    61    15    54 1
    62    16    55 1
    63    17    56 1
    64    20    57 1
    65    24    58 1
    66    24    59 1
    67    21    60 1
    68    21    61 1
    69    23    62 1
    70    23    63 1
    71    35    64 1
    72    35    65 1
    73    35    66 1
    74    26    67 1
    75    26    68 1
    76    78    69 1
    77    78    70 1
    78    78    71 1
    79    32    72 1
    80    32    73 1
    81    32    74 1
    82    30    75 1
    83    37    76 1
@<TRIPOS>SUBSTRUCTURE
     1 N53         1 TEMP              0 ****  ****    0 ROOT
