@<TRIPOS>MOLECULE
N53
   78    83     1     0     0
SMALL
bcc


@<TRIPOS>ATOM
      1 C1           0.0000     0.0000     0.0000 ca         1 N53       0.095100
      2 C2           1.3880     0.0000     0.0000 ca         1 N53      -0.121000
      3 C3           2.0780     0.0000     1.1970 ca         1 N53      -0.080500
      4 C4           1.3870     0.0010     2.3950 ca         1 N53      -0.103000
      5 C5           0.0040     0.0010     2.3980 ca         1 N53      -0.080500
      6 C6          -0.6910     0.0010     1.2040 ca         1 N53      -0.121000
      7 C7           0.1770    -3.3430    -2.3430 ca         1 N53      -0.127600
      8 C8           0.0850    -2.2170    -1.5240 ca         1 N53      -0.131000
      9 C9          -0.5880    -1.0930    -1.9710 ca         1 N53       0.138100
     10 C10         -1.1700    -1.0880    -3.2320 ca         1 N53      -0.109000
     11 C11         -1.0790    -2.2020    -4.0450 ca         1 N53      -0.068000
     12 C12         -0.4100    -3.3280    -3.6090 ca         1 N53      -0.124000
     13 C13          2.2820   -13.8140    -8.1440 ca         1 N53      -0.083300
     14 C14          3.4910   -13.9470    -8.8000 ca         1 N53      -0.104000
     15 C15          3.6080   -14.8230    -9.8630 ca         1 N53      -0.100000
     16 C16          2.5160   -15.5670   -10.2700 ca         1 N53      -0.109000
     17 C17          1.3070   -15.4340    -9.6130 ca         1 N53      -0.100000
     18 C18          1.1890   -14.5560    -8.5510 ca         1 N53      -0.104000
     19 N19          1.5360   -10.5740    -6.3530 n          1 N53      -0.163800
     20 C20          1.6340   -11.5140    -7.4810 c3         1 N53       0.064700
     21 C21          0.2370   -11.6950    -8.0840 c3         1 N53       0.116800
     22 N22         -0.3230   -10.3780    -8.4200 n3         1 N53      -0.542600
     23 C23         -0.5020    -9.5540    -7.2170 c3         1 N53       0.143800
     24 C24          0.8640    -9.2850    -6.5770 c3         1 N53      -0.052000
     25 C25          2.5750    -8.7990    -2.1220 cc         1 N53       0.370600
     26 C26          1.5080    -8.6160    -4.2190 c3         1 N53       0.156300
     27 N27          2.1040    -9.9550    -4.1750 n          1 N53      -0.179800
     28 C28          2.7670   -10.0910    -2.8750 c3         1 N53       0.037100
     29 N29          2.8470    -8.1950    -0.9910 nd         1 N53      -0.612800
     30 N30          2.2890    -6.9110    -1.0290 na         1 N53       0.440400
     31 C31          1.6680    -6.7630    -2.2270 cd         1 N53      -0.198700
     32 C33          4.2600   -10.3540    -3.0800 c3         1 N53      -0.019600
     33 C34          2.0450   -10.8880    -5.1450 c          1 N53       0.641100
     34 O35          2.4510   -12.0140    -4.9300 o          1 N53      -0.704100
     35 C36         -1.5840   -10.5150    -9.1580 c3         1 N53       0.188100
     36 C37          2.1560   -12.8630    -6.9810 c3         1 N53      -0.005100
     37 N38          0.9870    -5.6300    -2.6690 ns         1 N53       0.010900
     38 O40          1.4160    -4.5530    -0.7740 o          1 N53      -0.659100
     39 O41         -0.6810     0.0050    -1.1750 os         1 N53      -0.214200
     40 C42          1.8290    -7.9270    -2.9170 cc         1 N53      -0.427600
     41 H2           1.9300    -0.0010    -0.9380 ha         1 N53       0.116500
     42 H6          -1.7750     0.0010     1.2070 ha         1 N53       0.116500
     43 H3           3.1610    -0.0000     1.1970 ha         1 N53       0.107000
     44 H4           1.9300     0.0010     3.3330 ha         1 N53       0.107000
     45 H5          -0.5350     0.0020     3.3380 ha         1 N53       0.107000
     46 H8           0.5400    -2.2230    -0.5400 ha         1 N53       0.153000
     47 H12         -0.3410    -4.1990    -4.2490 ha         1 N53       0.101000
     48 H10         -1.6960    -0.2070    -3.5800 ha         1 N53       0.120000
     49 H11         -1.5350    -2.1920    -5.0280 ha         1 N53       0.109000
     50 H14          4.3480   -13.3650    -8.4820 ha         1 N53       0.107000
     51 H18          0.2410   -14.4530    -8.0370 ha         1 N53       0.107000
     52 H371         3.1270   -12.7260    -6.5200 hc         1 N53       0.065200
     53 H372         1.4650   -13.2710    -6.2540 hc         1 N53       0.065200
     54 H15          4.5560   -14.9270   -10.3770 ha         1 N53       0.099500
     55 H16          2.6070   -16.2540   -11.1020 ha         1 N53       0.100000
     56 H17          0.4500   -16.0160    -9.9320 ha         1 N53       0.099500
     57 H20          2.3040   -11.1120    -8.2310 h1         1 N53       0.035700
     58 H241         1.4620    -8.6740    -7.2420 h1         1 N53       0.060700
     59 H242         0.7270    -8.7770    -5.6300 h1         1 N53       0.060700
     60 H211        -0.4060   -12.1870    -7.3640 h1         1 N53       0.027700
     61 H212         0.3080   -12.2950    -8.9830 h1         1 N53       0.027700
     62 H231        -1.1340   -10.0790    -6.5110 h1         1 N53       0.011700
     63 H232        -0.9630    -8.6120    -7.4910 h1         1 N53       0.011700
     64 H361        -2.3030   -11.0500    -8.5490 h1         1 N53       0.001033
     65 H362        -1.4080   -11.0630   -10.0750 h1         1 N53       0.001033
     66 H363        -1.9730    -9.5320    -9.3940 h1         1 N53       0.001033
     67 H261         0.4330    -8.6970    -4.3340 h1         1 N53       0.020700
     68 H262         1.9290    -8.0540    -5.0440 h1         1 N53       0.020700
     69 H321         2.4040   -11.1570    -1.0450 hc         1 N53       0.021033
     70 H322         1.0620   -11.2090    -2.1960 hc         1 N53       0.021033
     71 H323         2.5090   -12.1870    -2.4800 hc         1 N53       0.021033
     72 H331         4.4070   -11.3810    -3.3930 hc         1 N53       0.021033
     73 H332         4.6430    -9.6860    -3.8420 hc         1 N53       0.021033
     74 H333         4.7880   -10.1810    -2.1500 hc         1 N53       0.021033
     75 H30          2.3960    -6.2020    -0.3300 hn         1 N53       0.200700
     76 H38          0.5380    -5.6330    -3.5630 hn         1 N53       0.184500
     77 C39          0.9000    -4.5440    -1.8750 c          1 N53       0.589700
     78 C32          2.1400   -11.2450    -2.0920 c3         1 N53      -0.019600
@<TRIPOS>BOND
     1     1     2 ar  
     2     1     6 ar  
     3     1    39 1   
     4     2     3 ar  
     5     2    41 1   
     6     3     4 ar  
     7     3    43 1   
     8     4     5 ar  
     9     4    44 1   
    10     5     6 ar  
    11     5    45 1   
    12     6    42 1   
    13     7     8 ar  
    14     7    12 ar  
    15     7    77 1   
    16     8     9 ar  
    17     8    46 1   
    18     9    10 ar  
    19     9    39 1   
    20    10    11 ar  
    21    10    48 1   
    22    11    12 ar  
    23    11    49 1   
    24    12    47 1   
    25    13    14 ar  
    26    13    18 ar  
    27    13    36 1   
    28    14    15 ar  
    29    14    50 1   
    30    15    16 ar  
    31    15    54 1   
    32    16    17 ar  
    33    16    55 1   
    34    17    18 ar  
    35    17    56 1   
    36    18    51 1   
    37    19    20 1   
    38    19    24 1   
    39    19    33 1   
    40    20    21 1   
    41    20    36 1   
    42    20    57 1   
    43    21    22 1   
    44    21    60 1   
    45    21    61 1   
    46    22    23 1   
    47    22    35 1   
    48    23    24 1   
    49    23    62 1   
    50    23    63 1   
    51    24    58 1   
    52    24    59 1   
    53    25    28 1   
    54    25    29 2   
    55    25    40 1   
    56    26    27 1   
    57    26    40 1   
    58    26    67 1   
    59    26    68 1   
    60    27    28 1   
    61    27    33 1   
    62    28    32 1   
    63    28    78 1   
    64    29    30 1   
    65    30    31 1   
    66    30    75 1   
    67    31    37 1   
    68    31    40 2   
    69    32    72 1   
    70    32    73 1   
    71    32    74 1   
    72    33    34 2   
    73    35    64 1   
    74    35    65 1   
    75    35    66 1   
    76    36    52 1   
    77    36    53 1   
    78    37    76 1   
    79    37    77 1   
    80    38    77 2   
    81    69    78 1   
    82    70    78 1   
    83    71    78 1   
@<TRIPOS>SUBSTRUCTURE
     1 N53         1 TEMP              0 ****  ****    0 ROOT
