@<TRIPOS>MOLECULE
N56
   44    47     1     0     0
SMALL
bcc


@<TRIPOS>ATOM
      1 Cl2          0.0000     0.0000     0.0000 cl         1 N56      -0.018400
      2 C16          1.7360     0.0000     0.0000 ca         1 N56      -0.026600
      3 C17          2.4280     0.0000     1.1980 ca         1 N56      -0.099000
      4 C            3.8110    -0.0010     1.1970 ca         1 N56      -0.026600
      5 Cl           4.6800    -0.0020     2.6990 cl         1 N56      -0.018400
      6 C15          2.4280    -0.0060    -1.1980 ca         1 N56      -0.087500
      7 C2           3.8100    -0.0070    -1.1990 ca         1 N56      -0.072300
      8 C1           4.5020    -0.0010    -0.0020 ca         1 N56      -0.087500
      9 C3           4.5630    -0.0140    -2.5040 c3         1 N56       0.195100
     10 N            4.8080     1.3680    -2.9350 n7         1 N56      -0.573200
     11 C4           5.5420     1.4010    -4.2070 c3         1 N56       0.113500
     12 C8           6.3050     2.7230    -4.3240 c3         1 N56       0.146800
     13 N1           5.3540     3.8420    -4.2970 nh         1 N56      -0.395600
     14 C7           4.4240     3.7770    -5.4310 c3         1 N56       0.142800
     15 C6           3.6050     2.4860    -5.3480 c3         1 N56      -0.024400
     16 C5           4.5530     1.2830    -5.3710 c3         1 N56      -0.024400
     17 C9           6.0150     5.0500    -4.2690 cc         1 N56       0.320700
     18 N4           5.4110     6.2740    -4.2360 na         1 N56       0.260700
     19 C14          6.4170     7.2240    -4.2150 ca         1 N56      -0.397500
     20 C10          7.6320     6.5160    -4.2390 ca         1 N56       0.528300
     21 N2           7.3180     5.1960    -4.2660 nd         1 N56      -0.640700
     22 C13          6.4370     8.6100    -4.1800 ca         1 N56      -0.039000
     23 C12          7.6670     9.2490    -4.1690 ca         1 N56      -0.213300
     24 C11          8.8270     8.4930    -4.1940 ca         1 N56       0.394300
     25 N3           8.7870     7.1770    -4.2270 nb         1 N56      -0.503000
     26 Cl1         10.3660     9.2960    -4.1820 cl         1 N56      -0.095000
     27 H1           1.8870    -0.0230     2.1360 ha         1 N56       0.126000
     28 H2           1.8860    -0.0110    -2.1370 ha         1 N56       0.119500
     29 H3           5.5850    -0.0020    -0.0030 ha         1 N56       0.119500
     30 H4           5.5090    -0.5240    -2.3720 h1         1 N56       0.013700
     31 H5           3.9760    -0.5280    -3.2560 h1         1 N56       0.013700
     32 H6           5.3360     1.8480    -2.2330 hn         1 N56       0.266800
     33 H8           6.2440     0.5770    -4.2470 h1         1 N56       0.017700
     34 H9           6.9930     2.8160    -3.4930 h1         1 N56       0.037200
     35 H10          6.8540     2.7400    -5.2580 h1         1 N56       0.037200
     36 H11          3.7560     4.6290    -5.3990 h1         1 N56       0.011700
     37 H12          4.9860     3.7870    -6.3580 h1         1 N56       0.011700
     38 H13          3.0360     2.4790    -4.4260 hc         1 N56       0.029700
     39 H14          2.9320     2.4310    -6.1950 hc         1 N56       0.029700
     40 H15          3.9800     0.3700    -5.2660 hc         1 N56       0.018700
     41 H16          5.0970     1.2700    -6.3070 hc         1 N56       0.018700
     42 H17          4.4370     6.4450    -4.0810 hn         1 N56       0.136700
     43 H19          5.5150     9.1790    -4.1610 ha         1 N56       0.107000
     44 H20          7.7200    10.3300    -4.1420 ha         1 N56       0.124000
@<TRIPOS>BOND
     1     1     2 1   
     2     2     3 ar  
     3     2     6 ar  
     4     3     4 ar  
     5     3    27 1   
     6     4     5 1   
     7     4     8 ar  
     8     6     7 ar  
     9     6    28 1   
    10     7     8 ar  
    11     7     9 1   
    12     8    29 1   
    13     9    10 1   
    14     9    30 1   
    15     9    31 1   
    16    10    11 1   
    17    10    32 1   
    18    11    12 1   
    19    11    16 1   
    20    11    33 1   
    21    12    13 1   
    22    12    34 1   
    23    12    35 1   
    24    13    14 1   
    25    13    17 1   
    26    14    15 1   
    27    14    36 1   
    28    14    37 1   
    29    15    16 1   
    30    15    38 1   
    31    15    39 1   
    32    16    40 1   
    33    16    41 1   
    34    17    18 1   
    35    17    21 2   
    36    18    19 1   
    37    18    42 1   
    38    19    20 ar  
    39    19    22 ar  
    40    20    21 1   
    41    20    25 ar  
    42    22    23 ar  
    43    22    43 1   
    44    23    24 ar  
    45    23    44 1   
    46    24    25 ar  
    47    24    26 1   
@<TRIPOS>SUBSTRUCTURE
     1 N56         1 TEMP              0 ****  ****    0 ROOT
