@<TRIPOS>MOLECULE
N58
   50    52     1     0     0
SMALL
bcc


@<TRIPOS>ATOM
      1 O1           0.0000     0.0000     0.0000 o          1 N58      -0.664100
      2 C9           1.2150     0.0000     0.0000 c          1 N58       0.557100
      3 N3           1.8900     0.0000     1.1680 ns         1 N58      -0.004100
      4 C8           1.1920     0.0000     2.3750 cc         1 N58      -0.235700
      5 C7          -0.1620    -0.0010     2.5220 cd         1 N58      -0.333300
      6 C2          -0.4440    -0.0020     3.8910 cd         1 N58       0.387600
      7 C3          -1.8180    -0.0040     4.5090 c3         1 N58      -0.080300
      8 C6          -2.7030     1.0150     3.7880 c3         1 N58       0.006900
      9 C5          -2.4340    -1.3980     4.3770 c3         1 N58       0.006900
     10 C4          -1.7120     0.3690     5.9900 c3         1 N58       0.006900
     11 N2           0.6900    -0.0010     4.5450 nc         1 N58      -0.642800
     12 N1           1.7360    -0.0050     3.6140 na         1 N58       0.449400
     13 C1           3.1680    -0.0110     3.9250 c3         1 N58       0.027600
     14 N4           1.8900    -0.0050    -1.1660 ns         1 N58      -0.056100
     15 C10          1.1940    -0.1160    -2.3780 ca         1 N58      -0.042400
     16 C20         -0.0520     0.4790    -2.5190 ca         1 N58      -0.139500
     17 C19         -0.7390     0.3690    -3.7120 ca         1 N58      -0.022000
     18 C13         -0.1820    -0.3360    -4.7710 ca         1 N58      -0.013100
     19 C12          1.0660    -0.9310    -4.6290 ca         1 N58      -0.022000
     20 C11          1.7540    -0.8170    -3.4380 ca         1 N58      -0.139500
     21 S           -1.0580    -0.4770    -6.2940 ss         1 N58      -0.281800
     22 C14         -0.4720     0.9050    -7.2170 ca         1 N58       0.086900
     23 C18          0.3850     1.8410    -6.6380 ca         1 N58      -0.221300
     24 C17          0.8260     2.9060    -7.3960 ca         1 N58       0.415700
     25 N5           0.4460     3.0440    -8.6530 nb         1 N58      -0.590000
     26 C16         -0.3640     2.1800    -9.2370 ca         1 N58       0.415700
     27 C15         -0.8490     1.0890    -8.5480 ca         1 N58      -0.221300
     28 H1           2.8900    -0.0230     1.1690 hn         1 N58       0.152500
     29 H2          -0.8890    -0.0680     1.7230 ha         1 N58       0.191000
     30 H3          -2.9350     0.6530     2.7940 hc         1 N58       0.007700
     31 H4          -3.6220     1.1540     4.3460 hc         1 N58       0.007700
     32 H5          -2.1790     1.9610     3.7150 hc         1 N58       0.007700
     33 H6          -1.7510    -2.1340     4.7840 hc         1 N58       0.007700
     34 H7          -3.3690    -1.4320     4.9230 hc         1 N58       0.007700
     35 H8          -2.6170    -1.6150     3.3320 hc         1 N58       0.007700
     36 H9          -2.7030     0.3990     6.4260 hc         1 N58       0.007700
     37 H10         -1.2470     1.3430     6.0840 hc         1 N58       0.007700
     38 H11         -1.1110    -0.3700     6.5060 hc         1 N58       0.007700
     39 H12          3.3040    -0.0270     5.0000 h1         1 N58       0.017367
     40 H13          3.6290    -0.8890     3.4890 h1         1 N58       0.017367
     41 H14          3.6300     0.8800     3.5170 h1         1 N58       0.017367
     42 H15          2.8850     0.0990    -1.1690 hn         1 N58       0.163500
     43 H16         -0.4870     1.0290    -1.6930 ha         1 N58       0.133000
     44 H17         -1.7120     0.8340    -3.8220 ha         1 N58       0.121500
     45 H18          1.5010    -1.4800    -5.4560 ha         1 N58       0.121500
     46 H19          2.7260    -1.2810    -3.3280 ha         1 N58       0.133000
     47 H20          0.7000     1.7330    -5.6070 ha         1 N58       0.127000
     48 H21          1.4910     3.6380    -6.9550 h4         1 N58      -0.019900
     49 H22         -0.6510     2.3310   -10.2710 h4         1 N58      -0.019900
     50 H23         -1.5120     0.3830    -9.0330 ha         1 N58       0.127000
@<TRIPOS>BOND
     1     1     2 2   
     2     2     3 1   
     3     2    14 1   
     4     3     4 1   
     5     3    28 1   
     6     4     5 2   
     7     4    12 1   
     8     5     6 1   
     9     5    29 1   
    10     6     7 1   
    11     6    11 2   
    12     7     8 1   
    13     7     9 1   
    14     7    10 1   
    15     8    30 1   
    16     8    31 1   
    17     8    32 1   
    18     9    33 1   
    19     9    34 1   
    20     9    35 1   
    21    10    36 1   
    22    10    37 1   
    23    10    38 1   
    24    11    12 1   
    25    12    13 1   
    26    13    39 1   
    27    13    40 1   
    28    13    41 1   
    29    14    15 1   
    30    14    42 1   
    31    15    16 ar  
    32    15    20 ar  
    33    16    17 ar  
    34    16    43 1   
    35    17    18 ar  
    36    17    44 1   
    37    18    19 ar  
    38    18    21 1   
    39    19    20 ar  
    40    19    45 1   
    41    20    46 1   
    42    21    22 1   
    43    22    23 ar  
    44    22    27 ar  
    45    23    24 ar  
    46    23    47 1   
    47    24    25 ar  
    48    24    48 1   
    49    25    26 ar  
    50    26    27 ar  
    51    26    49 1   
    52    27    50 1   
@<TRIPOS>SUBSTRUCTURE
     1 N58         1 TEMP              0 ****  ****    0 ROOT
