@<TRIPOS>MOLECULE
molecule
   50    52     1     0     0
SMALL
bcc


@<TRIPOS>ATOM
      1 O1           0.0000     0.0000     0.0000 o          1 N58      -0.616100
      2 C9           1.2150     0.0000     0.0000 c          1 N58       0.792100
      3 N3           1.8900     0.0000     1.1680 ns         1 N58      -0.466100
      4 C8           1.1920     0.0000     2.3750 cc         1 N58       0.066300
      5 C7          -0.1620    -0.0010     2.5220 cd         1 N58      -0.343300
      6 C2          -0.4440    -0.0020     3.8910 cd         1 N58       0.361600
      7 C3          -1.8180    -0.0040     4.5090 c3         1 N58      -0.083300
      8 C6          -2.7030     1.0150     3.7880 c3         1 N58      -0.080100
      9 C5          -2.4340    -1.3980     4.3770 c3         1 N58      -0.080100
     10 C4          -1.7120     0.3690     5.9900 c3         1 N58      -0.080100
     11 N2           0.6900    -0.0010     4.5450 nc         1 N58      -0.509800
     12 N1           1.7360    -0.0050     3.6140 na         1 N58       0.036400
     13 C1           3.1680    -0.0110     3.9250 c3         1 N58       0.061600
     14 N4           1.8900    -0.0050    -1.1660 ns         1 N58      -0.492100
     15 C10          1.1940    -0.1160    -2.3780 ca         1 N58       0.099600
     16 C20         -0.0520     0.4790    -2.5190 ca         1 N58      -0.160500
     17 C19         -0.7390     0.3690    -3.7120 ca         1 N58      -0.059500
     18 C13         -0.1820    -0.3360    -4.7710 ca         1 N58      -0.043100
     19 C12          1.0660    -0.9310    -4.6290 ca         1 N58      -0.059500
     20 C11          1.7540    -0.8170    -3.4380 ca         1 N58      -0.160500
     21 S           -1.0580    -0.4770    -6.2940 ss         1 N58      -0.182800
     22 C14         -0.4720     0.9050    -7.2170 ca         1 N58       0.056900
     23 C18          0.3850     1.8410    -6.6380 ca         1 N58      -0.256300
     24 C17          0.8260     2.9060    -7.3960 ca         1 N58       0.431200
     25 N5           0.4460     3.0440    -8.6530 nb         1 N58      -0.700000
     26 C16         -0.3640     2.1800    -9.2370 ca         1 N58       0.431200
     27 C15         -0.8490     1.0890    -8.5480 ca         1 N58      -0.256300
     28 H1           2.8900    -0.0230     1.1690 hn         1 N58       0.316500
     29 H2          -0.8890    -0.0680     1.7230 ha         1 N58       0.198000
     30 H3          -2.9350     0.6530     2.7940 hc         1 N58       0.039256
     31 H4          -3.6220     1.1540     4.3460 hc         1 N58       0.039256
     32 H5          -2.1790     1.9610     3.7150 hc         1 N58       0.039256
     33 H6          -1.7510    -2.1340     4.7840 hc         1 N58       0.039256
     34 H7          -3.3690    -1.4320     4.9230 hc         1 N58       0.039256
     35 H8          -2.6170    -1.6150     3.3320 hc         1 N58       0.039256
     36 H9          -2.7030     0.3990     6.4260 hc         1 N58       0.039256
     37 H10         -1.2470     1.3430     6.0840 hc         1 N58       0.039256
     38 H11         -1.1110    -0.3700     6.5060 hc         1 N58       0.039256
     39 H12          3.3040    -0.0270     5.0000 h1         1 N58       0.050367
     40 H13          3.6290    -0.8890     3.4890 h1         1 N58       0.050367
     41 H14          3.6300     0.8800     3.5170 h1         1 N58       0.050367
     42 H15          2.8850     0.0990    -1.1690 hn         1 N58       0.321500
     43 H16         -0.4870     1.0290    -1.6930 ha         1 N58       0.155500
     44 H17         -1.7120     0.8340    -3.8220 ha         1 N58       0.150000
     45 H18          1.5010    -1.4800    -5.4560 ha         1 N58       0.150000
     46 H19          2.7260    -1.2810    -3.3280 ha         1 N58       0.155500
     47 H20          0.7000     1.7330    -5.6070 ha         1 N58       0.145500
     48 H21          1.4910     3.6380    -6.9550 h4         1 N58       0.023600
     49 H22         -0.6510     2.3310   -10.2710 h4         1 N58       0.023600
     50 H23         -1.5120     0.3830    -9.0330 ha         1 N58       0.145500
@<TRIPOS>BOND
     1    24    25 ar
     2    24    23 ar
     3    25    26 ar
     4    23    22 ar
     5    26    27 ar
     6    22    27 ar
     7    22    21 1
     8    21    18 1
     9    19    18 ar
    10    19    20 ar
    11    18    17 ar
    12    20    15 ar
    13    17    16 ar
    14    15    16 ar
    15    15    14 1
    16    14     2 1
    17     2     1 2
    18     2     3 1
    19     3     4 1
    20     4     5 2
    21     4    12 1
    22     5     6 1
    23    12    13 1
    24    12    11 1
    25     6     7 1
    26     6    11 2
    27     8     7 1
    28    10     7 1
    29     7     9 1
    30     3    28 1
    31     5    29 1
    32     8    30 1
    33     8    31 1
    34     8    32 1
    35     9    33 1
    36     9    34 1
    37     9    35 1
    38    10    36 1
    39    10    37 1
    40    10    38 1
    41    13    39 1
    42    13    40 1
    43    13    41 1
    44    14    42 1
    45    16    43 1
    46    17    44 1
    47    19    45 1
    48    20    46 1
    49    23    47 1
    50    24    48 1
    51    26    49 1
    52    27    50 1
@<TRIPOS>SUBSTRUCTURE
     1 N58         1 TEMP              0 ****  ****    0 ROOT
