@<TRIPOS>MOLECULE
molecule
   41    43     1     0     0
SMALL
bcc


@<TRIPOS>ATOM
      1 N53          0.0000     0.0000     0.0000 nz         1 N5A      -0.806600
      2 C52          1.4680     0.0000     0.0000 c3         1 N5A       0.072800
      3 C51          1.9780     0.0000     1.4430 c3         1 N5A       0.099000
      4 N5'          3.4430     0.0010     1.4430 ns         1 N5A      -0.597900
      5 C5'          4.1160     0.0010     2.6110 c          1 N5A       0.667100
      6 O5'          3.5110     0.0010     3.6610 o          1 N5A      -0.551100
      7 C4'          5.6240     0.0010     2.6110 c3         1 N5A       0.078100
      8 O4'          6.1320     0.0360     3.9620 os         1 N5A      -0.372600
      9 C3'          6.1700    -1.3350     2.0480 c3         1 N5A       0.090100
     10 O3'          6.2720    -1.2920     0.6230 oh         1 N5A      -0.589800
     11 C2'          7.5740    -1.4100     2.7010 c3         1 N5A       0.081100
     12 O2'          8.5740    -0.9510     1.7900 oh         1 N5A      -0.566800
     13 C1'          7.4780    -0.4680     3.9160 c3         1 N5A       0.256800
     14 N9           7.7750    -1.2050     5.1470 na         1 N5A      -0.268000
     15 C8           6.8660    -1.7890     5.9770 cc         1 N5A       0.418700
     16 N7           7.4770    -2.3590     6.9750 nd         1 N5A      -0.574100
     17 C5           8.8130    -2.1770     6.8500 ca         1 N5A      -0.211200
     18 C4           9.0220    -1.4390     5.6720 ca         1 N5A       0.474800
     19 N3          10.2630    -1.1180     5.3210 nb         1 N5A      -0.804000
     20 C2          11.2870    -1.4940     6.0590 ca         1 N5A       0.752900
     21 N1          11.1410    -2.1930     7.1700 nb         1 N5A      -0.828000
     22 C6           9.9380    -2.5550     7.6030 ca         1 N5A       0.794200
     23 N6           9.7950    -3.2880     8.7680 nv         1 N5A      -0.976500
     24 H531        -0.3340    -0.8420     0.4270 hn         1 N5A       0.462800
     25 H532        -0.3340     0.0510    -0.9420 hn         1 N5A       0.462800
     26 H521         1.8290     0.8850    -0.5110 hx         1 N5A       0.117200
     27 H522         1.8290    -0.8840    -0.5110 hx         1 N5A       0.117200
     28 H511         1.6170    -0.8850     1.9530 h1         1 N5A       0.072200
     29 H512         1.6160     0.8840     1.9540 h1         1 N5A       0.072200
     30 HN5'         3.9440     0.0320     0.5770 hn         1 N5A       0.337500
     31 H4'          6.0100     0.8370     2.0400 h1         1 N5A       0.101700
     32 H3'          5.5540    -2.1650     2.3710 h1         1 N5A       0.059700
     33 HO3'         6.2150    -2.1670     0.2770 ho         1 N5A       0.414000
     34 H2'          7.7840    -2.4230     3.0250 h1         1 N5A       0.072700
     35 HO2'         9.1080    -1.6780     1.5160 ho         1 N5A       0.422000
     36 H1'          8.1730     0.3540     3.7970 h2         1 N5A       0.121700
     37 H8           5.7930    -1.7810     5.8280 h5         1 N5A       0.086800
     38 H2          12.2860    -1.2210     5.7420 h5         1 N5A       0.067100
     39 HN61        10.6040    -3.5520     9.2960 hn         1 N5A       0.454800
     40 HN62         8.8840    -3.5540     9.0840 hn         1 N5A       0.454800
     41 H533        -0.3340     0.7890     0.5170 hn         1 N5A       0.462800
@<TRIPOS>BOND
     1     1     2 1
     2     1    24 1
     3     1    25 1
     4     2     3 1
     5     2    26 1
     6     2    27 1
     7     3     4 1
     8     3    28 1
     9     3    29 1
    10     4     5 1
    11     4    30 1
    12     5     6 2
    13     5     7 1
    14     7     8 1
    15     7     9 1
    16     7    31 1
    17     8    13 1
    18     9    10 1
    19     9    11 1
    20     9    32 1
    21    10    33 1
    22    11    12 1
    23    11    13 1
    24    11    34 1
    25    12    35 1
    26    13    14 1
    27    13    36 1
    28    14    15 1
    29    14    18 1
    30    15    16 2
    31    15    37 1
    32    16    17 1
    33    17    18 ar
    34    17    22 ar
    35    18    19 ar
    36    19    20 ar
    37    20    21 ar
    38    20    38 1
    39    21    22 ar
    40    22    23 1
    41    23    39 1
    42    23    40 1
    43    41     1 1
@<TRIPOS>SUBSTRUCTURE
     1 N5A         1 TEMP              0 ****  ****    0 ROOT
