@<TRIPOS>MOLECULE
N5B
   30    32     1     0     0
SMALL
bcc


@<TRIPOS>ATOM
      1 C1           0.0000     0.0000     0.0000 cc         1 N5B       0.417600
      2 C2          -0.8810    -0.0040    -1.2230 cx         1 N5B      -0.130000
      3 C3           1.3970     0.0000     0.0000 cc         1 N5B      -0.329300
      4 N4          -0.4130     0.0080     1.2400 nd         1 N5B      -0.660800
      5 C5          -2.2510    -0.6760    -1.1060 cx         1 N5B      -0.074900
      6 C6          -2.1510     0.8480    -1.1810 cx         1 N5B      -0.074900
      7 C7           1.8150     0.0000     1.2950 cd         1 N5B      -0.259700
      8 N8           0.7070     0.0080     2.0800 na         1 N5B       0.409400
      9 N9           3.1370    -0.0050     1.7340 ns         1 N5B       0.005900
     10 C10          4.1450    -0.0120     0.8410 c          1 N5B       0.588700
     11 C11          5.5470    -0.0220     1.3070 ca         1 N5B      -0.162600
     12 O12          3.9000    -0.0160    -0.3500 o          1 N5B      -0.620100
     13 C13          6.5930    -0.0350     0.3830 ca         1 N5B      -0.057500
     14 C14          5.8310    -0.0100     2.6720 ca         1 N5B      -0.057500
     15 C15          7.9000    -0.0430     0.8260 ca         1 N5B      -0.108500
     16 C16          7.1430    -0.0250     3.1020 ca         1 N5B      -0.108500
     17 C17          8.1740    -0.0390     2.1820 ca         1 N5B      -0.073000
     18 H2          -0.4200    -0.0830    -2.2000 hc         1 N5B       0.062700
     19 H3           2.0350    -0.0060    -0.8760 ha         1 N5B       0.188000
     20 H5C1        -2.4910    -1.0800    -0.1300 hc         1 N5B       0.048950
     21 H5C2        -2.6090    -1.1660    -2.0030 hc         1 N5B       0.048950
     22 H6C1        -2.3300     1.3750    -0.2520 hc         1 N5B       0.048950
     23 H6C2        -2.4480     1.2890    -2.1250 hc         1 N5B       0.048950
     24 H8           0.6940     0.0120     3.0800 hn         1 N5B       0.143700
     25 H9           3.3380    -0.0030     2.7140 hn         1 N5B       0.163500
     26 H13          6.3790    -0.0390    -0.6790 ha         1 N5B       0.113000
     27 H14          5.0240     0.0010     3.3950 ha         1 N5B       0.113000
     28 H15          8.7130    -0.0540     0.1100 ha         1 N5B       0.107500
     29 H16          7.3650    -0.0180     4.1620 ha         1 N5B       0.107500
     30 H17          9.2020    -0.0480     2.5240 ha         1 N5B       0.104000
@<TRIPOS>BOND
     1     1     2 1   
     2     1     3 1   
     3     1     4 2   
     4     2     5 1   
     5     2     6 1   
     6     2    18 1   
     7     3     7 2   
     8     3    19 1   
     9     4     8 1   
    10     5     6 1   
    11     5    20 1   
    12     5    21 1   
    13     6    22 1   
    14     6    23 1   
    15     7     8 1   
    16     7     9 1   
    17     8    24 1   
    18     9    10 1   
    19     9    25 1   
    20    10    11 1   
    21    10    12 2   
    22    11    13 ar  
    23    11    14 ar  
    24    13    15 ar  
    25    13    26 1   
    26    14    16 ar  
    27    14    27 1   
    28    15    17 ar  
    29    15    28 1   
    30    16    17 ar  
    31    16    29 1   
    32    17    30 1   
@<TRIPOS>SUBSTRUCTURE
     1 N5B         1 TEMP              0 ****  ****    0 ROOT
