@<TRIPOS>MOLECULE
molecule
   44    45     1     0     0
SMALL
bcc


@<TRIPOS>ATOM
      1 O4           0.0000     0.0000     0.0000 o          1 N5C      -0.304000
      2 N5           1.2190     0.0000     0.0000 no         1 N5C       0.274100
      3 O3           1.8280     0.0000     1.0550 o          1 N5C      -0.304000
      4 C5           1.9580    -0.0060    -1.2820 cc         1 N5C      -0.275700
      5 C4           3.3640     0.1090    -1.2990 cc         1 N5C       0.146500
      6 N4           4.0620     0.2270    -0.1190 nz         1 N5C      -0.624600
      7 N3           4.0080     0.1020    -2.4580 nd         1 N5C      -0.820100
      8 C2           3.3430    -0.0120    -3.6060 c          1 N5C       0.828900
      9 O2           3.9580    -0.0170    -4.6580 o          1 N5C      -0.682500
     10 C6           1.2960    -0.1270    -2.4570 cd         1 N5C       0.040600
     11 N1           2.0020    -0.1240    -3.6230 n          1 N5C      -0.361000
     12 C1'          1.2980    -0.2490    -4.9010 c3         1 N5C       0.301500
     13 O4'          1.8470    -1.3380    -5.6740 os         1 N5C      -0.344600
     14 C2'          1.5310     1.0070    -5.7690 c3         1 N5C       0.079100
     15 O2'          0.4230     1.9040    -5.6590 oh         1 N5C      -0.599800
     16 C3'          1.6400     0.4560    -7.2080 c3         1 N5C       0.096100
     17 O3'          0.6050     0.9950    -8.0310 oh         1 N5C      -0.592800
     18 C4'          1.4600    -1.0690    -7.0390 c3         1 N5C       0.126100
     19 C5'          2.3710    -1.8230    -8.0100 c3         1 N5C       0.240400
     20 O5'          2.1590    -3.2290    -7.8680 os         1 N5C      -0.599200
     21 PA           2.9520    -4.3280    -8.7370 p5         1 N5C       1.445800
     22 O1A          4.5180    -4.2780    -8.3640 o          1 N5C      -0.840500
     23 O2A          2.7780    -4.0380   -10.1770 o          1 N5C      -0.840500
     24 O3A          2.3700    -5.7940    -8.4100 os         1 N5C      -0.723800
     25 PB           2.4930    -7.2310    -9.1240 p5         1 N5C       1.571800
     26 O1B          1.5690    -7.2560   -10.4420 o          1 N5C      -0.698000
     27 O2B          3.9030    -7.4720    -9.5060 o          1 N5C      -0.698000
     28 O3B          2.0080    -8.3790    -8.1060 os         1 N5C      -0.717800
     29 PG           2.2460    -9.9690    -8.0180 p5         1 N5C       1.316900
     30 O1G          3.6900   -10.2610    -7.3700 o          1 N5C      -0.623500
     31 O2G          1.1020   -10.6330    -7.1010 o          1 N5C      -0.623500
     32 O3G          2.1880   -10.5530    -9.3780 o          1 N5C      -0.623500
     33 HN4          3.7390     1.0320     0.3800 hn         1 N5C       0.391800
     34 HN4A         3.9160    -0.5910     0.4380 hn         1 N5C       0.391800
     35 H6           0.2170    -0.2170    -2.4700 h4         1 N5C       0.156000
     36 H1'          0.2370    -0.4010    -4.7410 h2         1 N5C       0.058700
     37 H2'          2.4530     1.4980    -5.4820 h1         1 N5C       0.077700
     38 HO2'         0.7390     2.7750    -5.4830 ho         1 N5C       0.381000
     39 H3'          2.6160     0.6770    -7.6230 h1         1 N5C       0.058700
     40 HO3'         0.9870     1.5200    -8.7140 ho         1 N5C       0.383000
     41 H4'          0.4240    -1.3430    -7.1960 h1         1 N5C       0.062700
     42 H5'          2.1430    -1.5240    -9.0260 h1         1 N5C       0.037200
     43 H5'A         3.4060    -1.5900    -7.7890 h1         1 N5C       0.037200
     44 H43          5.0360     0.3380    -0.3180 hn         1 N5C       0.391800
@<TRIPOS>BOND
     1     1     2 1
     2     2     3 1
     3     2     4 1
     4     4     5 1
     5     4    10 2
     6     5     6 1
     7     5     7 2
     8     7     8 1
     9     8     9 2
    10     8    11 1
    11    10    11 1
    12    11    12 1
    13    12    13 1
    14    12    14 1
    15    13    18 1
    16    14    15 1
    17    14    16 1
    18    16    17 1
    19    16    18 1
    20    18    19 1
    21    19    20 1
    22    20    21 1
    23    21    22 1
    24    21    23 1
    25    21    24 1
    26    24    25 1
    27    25    26 1
    28    25    27 1
    29    25    28 1
    30    28    29 1
    31    29    30 1
    32    29    31 1
    33    29    32 1
    34     6    33 1
    35     6    34 1
    36    10    35 1
    37    12    36 1
    38    14    37 1
    39    15    38 1
    40    16    39 1
    41    17    40 1
    42    18    41 1
    43    19    42 1
    44    19    43 1
    45    44     6 1
@<TRIPOS>SUBSTRUCTURE
     1 N5C         1 TEMP              0 ****  ****    0 ROOT
