@<TRIPOS>MOLECULE
N5F
   43    43     1     0     0
SMALL
bcc


@<TRIPOS>ATOM
      1 OAM          0.0000     0.0000     0.0000 o          1 N5F      -0.745167
      2 PAT          1.6100     0.0000     0.0000 p5         1 N5F       0.642900
      3 OAZ          2.1470     0.0000     1.5180 o          1 N5F      -0.745167
      4 OAU          2.1040    -1.2090    -0.6980 o          1 N5F      -0.745167
      5 OAS          2.1460     1.3140    -0.7590 os         1 N5F      -0.488200
      6 CAR          1.9280     1.5530    -2.1510 c3         1 N5F       0.304700
      7 CAQ          2.5560     2.8660    -2.5400 ca         1 N5F      -0.113600
      8 CAY          3.2170     3.6310    -1.5980 ca         1 N5F       0.378200
      9 NAX          3.7710     4.7820    -1.9290 nb         1 N5F      -0.628000
     10 CAW          3.7200     5.2490    -3.1600 ca         1 N5F       0.234600
     11 CAV          4.3700     6.5690    -3.4840 c3         1 N5F      -0.012400
     12 CAO          3.0740     4.5370    -4.1610 ca         1 N5F      -0.010200
     13 OAN          3.0250     5.0220    -5.4290 oh         1 N5F      -0.470100
     14 CAP          2.4840     3.3170    -3.8490 ca         1 N5F      -0.097300
     15 CAK          1.7780     2.5090    -4.9070 c3         1 N5F       0.193100
     16 N            0.3630     2.9000    -4.9580 n7         1 N5F      -0.563200
     17 CA          -0.3590     2.1300    -5.9810 c3         1 N5F       0.015500
     18 C           -0.1920     2.7980    -7.3220 c          1 N5F       0.965600
     19 OXT         -0.7700     2.2660    -8.4110 o          1 N5F      -0.930300
     20 O            0.4610     3.8100    -7.4160 o          1 N5F      -0.930300
     21 CB          -1.8450     2.0730    -5.6210 c3         1 N5F      -0.011400
     22 CAG         -2.0240     1.2870    -4.3210 c3         1 N5F      -0.032400
     23 CAH         -3.5110     1.2290    -3.9610 c3         1 N5F      -0.131400
     24 CAI         -3.6880     0.4550    -2.6800 c          1 N5F       0.940600
     25 OAB         -2.7250    -0.0040    -2.1140 o          1 N5F      -0.886300
     26 OAJ         -4.9160     0.2750    -2.1690 o          1 N5F      -0.886300
     27 HAR          0.8630     1.5890    -2.3490 h1         1 N5F       0.019700
     28 HARA         2.3750     0.7530    -2.7290 h1         1 N5F       0.019700
     29 HAY          3.2800     3.2820    -0.5750 h4         1 N5F       0.030100
     30 HAV          3.6410     7.2280    -3.9400 hc         1 N5F      -0.016967
     31 HAVA         5.1910     6.4080    -4.1720 hc         1 N5F      -0.016967
     32 HAVB         4.7450     7.0200    -2.5740 hc         1 N5F      -0.016967
     33 HOAN         3.8570     4.8840    -5.8510 ho         1 N5F       0.364000
     34 HAK          1.8530     1.4550    -4.6660 h1         1 N5F       0.016200
     35 HAKA         2.2390     2.6930    -5.8700 h1         1 N5F       0.016200
     36 HN           0.2940     3.8770    -5.1650 hn         1 N5F       0.266800
     37 HA           0.0410     1.1250    -6.0250 h1         1 N5F       0.033700
     38 HB          -2.3910     1.5820    -6.4180 hc         1 N5F      -0.002800
     39 HBA         -2.2240     3.0790    -5.4910 hc         1 N5F      -0.002800
     40 HAG         -1.6450     0.2800    -4.4520 hc         1 N5F       0.042200
     41 HAGA        -1.4790     1.7770    -3.5240 hc         1 N5F       0.042200
     42 HAH         -3.8900     2.2360    -3.8290 hc         1 N5F      -0.020300
     43 HAHA        -4.0570     0.7390    -4.7570 hc         1 N5F      -0.020300
@<TRIPOS>BOND
     1     1     2 1   
     2     2     3 1   
     3     2     4 1   
     4     2     5 1   
     5     5     6 1   
     6     6     7 1   
     7     6    27 1   
     8     6    28 1   
     9     7     8 ar  
    10     7    14 ar  
    11     8     9 ar  
    12     8    29 1   
    13     9    10 ar  
    14    10    11 1   
    15    10    12 ar  
    16    11    30 1   
    17    11    31 1   
    18    11    32 1   
    19    12    13 1   
    20    12    14 ar  
    21    13    33 1   
    22    14    15 1   
    23    15    16 1   
    24    15    34 1   
    25    15    35 1   
    26    16    17 1   
    27    16    36 1   
    28    17    18 1   
    29    17    21 1   
    30    17    37 1   
    31    18    19 1   
    32    18    20 1   
    33    21    22 1   
    34    21    38 1   
    35    21    39 1   
    36    22    23 1   
    37    22    40 1   
    38    22    41 1   
    39    23    24 1   
    40    23    42 1   
    41    23    43 1   
    42    24    25 1   
    43    24    26 1   
@<TRIPOS>SUBSTRUCTURE
     1 N5F         1 TEMP              0 ****  ****    0 ROOT
