@<TRIPOS>MOLECULE
N5J
   16    17     1     0     0
SMALL
bcc


@<TRIPOS>ATOM
      1 O            0.0000     0.0000     0.0000 o          1 N5J      -0.652500
      2 C1           1.2160     0.0000     0.0000 c          1 N5J       0.616100
      3 N1           1.9220     0.0000     1.1570 ns         1 N5J      -0.016400
      4 C2           3.2800     0.0000     1.1380 cc         1 N5J       0.331800
      5 N2           3.9830    -0.0010     0.0450 nd         1 N5J      -0.528100
      6 C3           3.3940    -0.0010    -1.1750 ca         1 N5J       0.029100
      7 N3           3.5080    -0.0020    -3.5230 nb         1 N5J      -0.553000
      8 C4           4.1300    -0.0020    -2.3630 ca         1 N5J       0.416200
      9 C5           2.1910    -0.0030    -3.6280 ca         1 N5J       0.377200
     10 C6           1.3800    -0.0120    -2.5100 ca         1 N5J      -0.133300
     11 C7           1.9830    -0.0060    -1.2550 ca         1 N5J      -0.191600
     12 HN1          1.4380     0.0010     2.0340 hn         1 N5J       0.184500
     13 H2           3.8060     0.0000     2.0850 h5         1 N5J       0.004800
     14 H4           5.2120    -0.0010    -2.3300 h4         1 N5J      -0.003900
     15 H5           1.7370    -0.0030    -4.6120 h4         1 N5J      -0.014900
     16 H6           0.3010    -0.0120    -2.6080 ha         1 N5J       0.133000
@<TRIPOS>BOND
     1     1     2 2   
     2     2     3 1   
     3     2    11 1   
     4     3     4 1   
     5     3    12 1   
     6     4     5 2   
     7     4    13 1   
     8     5     6 1   
     9     6     8 ar  
    10     6    11 ar  
    11     7     8 ar  
    12     7     9 ar  
    13     8    14 1   
    14     9    10 ar  
    15     9    15 1   
    16    10    11 ar  
    17    10    16 1   
@<TRIPOS>SUBSTRUCTURE
     1 N5J         1 TEMP              0 ****  ****    0 ROOT
