@<TRIPOS>MOLECULE
molecule
   16    17     1     0     0
SMALL
bcc


@<TRIPOS>ATOM
      1 O            0.0000     0.0000     0.0000 o          1 N5J      -0.610500
      2 C1           1.2160     0.0000     0.0000 c          1 N5J       0.704100
      3 N1           1.9220     0.0000     1.1570 ns         1 N5J      -0.476400
      4 C2           3.2800     0.0000     1.1380 cc         1 N5J       0.502800
      5 N2           3.9830    -0.0010     0.0450 nd         1 N5J      -0.638100
      6 C3           3.3940    -0.0010    -1.1750 ca         1 N5J       0.064100
      7 N3           3.5080    -0.0020    -3.5230 nb         1 N5J      -0.665000
      8 C4           4.1300    -0.0020    -2.3630 ca         1 N5J       0.439200
      9 C5           2.1910    -0.0030    -3.6280 ca         1 N5J       0.396200
     10 C6           1.3800    -0.0120    -2.5100 ca         1 N5J      -0.177300
     11 C7           1.9830    -0.0060    -1.2550 ca         1 N5J      -0.175600
     12 HN1          1.4380     0.0010     2.0340 hn         1 N5J       0.341500
     13 H2           3.8060     0.0000     2.0850 h5         1 N5J       0.057800
     14 H4           5.2120    -0.0010    -2.3300 h4         1 N5J       0.044100
     15 H5           1.7370    -0.0030    -4.6120 h4         1 N5J       0.030100
     16 H6           0.3010    -0.0120    -2.6080 ha         1 N5J       0.162000
@<TRIPOS>BOND
     1     1     2 2
     2     2     3 1
     3     2    11 1
     4     3     4 1
     5     4     5 2
     6     5     6 1
     7     6     8 ar
     8     6    11 ar
     9     7     8 ar
    10     7     9 ar
    11     9    10 ar
    12    10    11 ar
    13     3    12 1
    14     4    13 1
    15     8    14 1
    16     9    15 1
    17    10    16 1
@<TRIPOS>SUBSTRUCTURE
     1 N5J         1 TEMP              0 ****  ****    0 ROOT
