@<TRIPOS>MOLECULE
molecule
   73    76     1     0     0
SMALL
bcc


@<TRIPOS>ATOM
      1 N1           0.0000     0.0000     0.0000 n          1 N5N      -0.419800
      2 C2           1.4650     0.0000     0.0000 cx         1 N5N       0.060700
      3 C3          -0.6740     1.0100    -0.5850 c          1 N5N       0.643100
      4 C4          -0.7330    -1.1010     0.6290 c3         1 N5N      -0.031000
      5 C5           2.1720     0.0000     1.3570 cx         1 N5N      -0.158400
      6 C6           2.1710    -1.2640     0.4950 cx         1 N5N      -0.158400
      7 C7          -2.1810     1.0110    -0.5850 c3         1 N5N       0.190500
      8 O8          -0.0670     1.9190    -1.1100 o          1 N5N      -0.630100
      9 C9          -0.9840    -0.7740     2.0780 c          1 N5N       0.868600
     10 N10         -2.6690     2.3710    -0.8250 n7         1 N5N      -0.882100
     11 C11         -2.6910     0.0820    -1.6890 c3         1 N5N      -0.156400
     12 O12         -1.6440    -1.6440     2.8590 o          1 N5N      -0.829800
     13 O13         -0.5910     0.2720     2.5380 o          1 N5N      -0.829800
     14 S14         -3.0620     3.3470     0.4520 sy         1 N5N       1.428200
     15 C15         -4.1930    -0.0130    -1.6120 c          1 N5N       0.650100
     16 C16         -1.5780     3.6570     1.3500 ca         1 N5N      -0.308500
     17 O17         -3.4620     4.5930    -0.1020 o          1 N5N      -0.642800
     18 O18         -3.8940     2.5750     1.3070 o          1 N5N      -0.642800
     19 N19         -4.8650    -0.7810    -2.4920 ns         1 N5N      -0.614900
     20 O20         -4.7960     0.6010    -0.7560 o          1 N5N      -0.549100
     21 C21         -0.8080     4.7310     1.0220 ca         1 N5N      -0.005000
     22 C22         -1.2120     2.8010     2.3860 ca         1 N5N      -0.011000
     23 C23         -6.3260    -0.8730    -2.4160 c3         1 N5N       0.123000
     24 C24          0.3770     4.9810     1.7360 ca         1 N5N      -0.069000
     25 C25         -0.0710     3.0110     3.0990 ca         1 N5N      -0.104000
     26 C26         -6.8360    -1.8010    -3.5200 c3         1 N5N      -0.110700
     27 C27          0.7510     4.1070     2.7880 ca         1 N5N       0.002000
     28 C28          1.1970     6.0790     1.4280 ca         1 N5N      -0.100000
     29 C29         -6.3260    -3.2240    -3.2690 c3         1 N5N       0.241800
     30 C30         -8.3660    -1.8050    -3.5180 c3         1 N5N      -0.078400
     31 C31          1.9360     4.3560     3.5010 ca         1 N5N      -0.122000
     32 C32          2.3370     6.2890     2.1410 ca         1 N5N      -0.153000
     33 N33         -6.9290    -4.1250    -4.2610 nh         1 N5N      -0.763600
     34 C34         -8.8780    -2.7070    -4.6430 c3         1 N5N      -0.095400
     35 C35          2.7060     5.4300     3.1740 ca         1 N5N      -0.127000
     36 C36         -8.3910    -4.1390    -4.4050 c3         1 N5N       0.213800
     37 C37         -6.1400    -4.9360    -5.0400 c2         1 N5N       0.694100
     38 N38         -6.7200    -5.8550    -5.8830 nz         1 N5N      -0.806600
     39 N39         -4.8410    -4.8370    -4.9790 n2         1 N5N      -0.793100
     40 H2           1.9880     0.5340    -0.7840 h1         1 N5N       0.096700
     41 H41C        -1.6790    -1.2420     0.1210 h1         1 N5N       0.043200
     42 H42C        -0.1480    -2.0100     0.5600 h1         1 N5N       0.043200
     43 H51C         3.1100     0.5390     1.3950 hc         1 N5N       0.083950
     44 H52C         1.5210    -0.0250     2.2230 hc         1 N5N       0.083950
     45 H61C         1.5210    -2.0610     0.8340 hc         1 N5N       0.083950
     46 H62C         3.1100    -1.4970     0.0060 hc         1 N5N       0.083950
     47 H7          -2.5420     0.6620     0.3750 h1         1 N5N       0.131700
     48 H10         -2.7410     2.7180    -1.7610 hn         1 N5N       0.443800
     49 H111        -2.4030     0.4780    -2.6560 hc         1 N5N       0.069700
     50 H112        -2.2590    -0.9030    -1.5600 hc         1 N5N       0.069700
     51 H19         -4.3730    -1.2460    -3.2280 hn         1 N5N       0.302500
     52 H21         -1.1630     5.4500     0.2940 ha         1 N5N       0.139000
     53 H22         -1.8510     1.9630     2.6370 ha         1 N5N       0.190000
     54 H231        -6.6130    -1.2690    -1.4490 h1         1 N5N       0.068200
     55 H232        -6.7570     0.1120    -2.5450 h1         1 N5N       0.068200
     56 H25          0.2010     2.3380     3.9030 ha         1 N5N       0.158000
     57 H26         -6.4780    -1.4560    -4.4820 hc         1 N5N       0.063700
     58 H28          0.9230     6.7560     0.6270 ha         1 N5N       0.124000
     59 H291        -6.6100    -3.5400    -2.2720 h1         1 N5N       0.091700
     60 H292        -5.2470    -3.2450    -3.3690 h1         1 N5N       0.091700
     61 H301        -8.7240    -2.1790    -2.5670 hc         1 N5N       0.070200
     62 H302        -8.7280    -0.7960    -3.6740 hc         1 N5N       0.070200
     63 H31          2.2350     3.6970     4.3070 ha         1 N5N       0.133000
     64 H32          2.9670     7.1370     1.9010 ha         1 N5N       0.116000
     65 H341        -8.4970    -2.3500    -5.5930 hc         1 N5N       0.063200
     66 H342        -9.9610    -2.6910    -4.6530 hc         1 N5N       0.063200
     67 H35          3.6180     5.6200     3.7260 ha         1 N5N       0.117000
     68 H361        -8.8410    -4.5280    -3.4990 h1         1 N5N       0.042700
     69 H362        -8.6660    -4.7600    -5.2490 h1         1 N5N       0.042700
     70 H381        -6.0140    -6.4610    -6.2520 hn         1 N5N       0.463800
     71 H382        -7.3920    -6.3960    -5.3760 hn         1 N5N       0.463800
     72 H39         -4.2660    -5.4280    -5.5450 hn         1 N5N       0.434400
     73 H383        -7.1760    -5.3770    -6.6350 hn         1 N5N       0.463800
@<TRIPOS>BOND
     1     1     2 1
     2     1     3 1
     3     1     4 1
     4     2     5 1
     5     2     6 1
     6     3     7 1
     7     3     8 2
     8     4     9 1
     9     5     6 1
    10     7    10 1
    11     7    11 1
    12     9    12 1
    13     9    13 1
    14    10    14 1
    15    11    15 1
    16    14    16 1
    17    14    17 2
    18    14    18 2
    19    15    19 1
    20    15    20 2
    21    16    21 ar
    22    16    22 ar
    23    19    23 1
    24    21    24 ar
    25    22    25 ar
    26    23    26 1
    27    24    27 ar
    28    24    28 ar
    29    25    27 ar
    30    26    29 1
    31    26    30 1
    32    27    31 ar
    33    28    32 ar
    34    29    33 1
    35    30    34 1
    36    31    35 ar
    37    32    35 ar
    38    33    36 1
    39    33    37 1
    40    34    36 1
    41    37    38 1
    42    37    39 2
    43     2    40 1
    44     4    41 1
    45     4    42 1
    46     5    43 1
    47     5    44 1
    48     6    45 1
    49     6    46 1
    50     7    47 1
    51    10    48 1
    52    11    49 1
    53    11    50 1
    54    19    51 1
    55    21    52 1
    56    22    53 1
    57    23    54 1
    58    23    55 1
    59    25    56 1
    60    26    57 1
    61    28    58 1
    62    29    59 1
    63    29    60 1
    64    30    61 1
    65    30    62 1
    66    31    63 1
    67    32    64 1
    68    34    65 1
    69    34    66 1
    70    35    67 1
    71    36    68 1
    72    36    69 1
    73    38    70 1
    74    38    71 1
    75    39    72 1
    76    73    38 1
@<TRIPOS>SUBSTRUCTURE
     1 N5N         1 TEMP              0 ****  ****    0 ROOT
