@<TRIPOS>MOLECULE
N5O
   39    41     1     0     0
SMALL
bcc


@<TRIPOS>ATOM
      1 O53          0.0000     0.0000     0.0000 oh         1 N5O      -0.597800
      2 C52          1.4290     0.0000     0.0000 c3         1 N5O       0.211400
      3 C51          1.9390     0.0000     1.4420 c3         1 N5O       0.046000
      4 N5'          1.5520    -1.2520     2.0970 ns         1 N5O      -0.187900
      5 C5'          1.8950    -1.4750     3.3810 c          1 N5O       0.561100
      6 O5'          2.5250    -0.6400     3.9950 o          1 N5O      -0.624100
      7 C4'          1.4970    -2.7630     4.0550 c3         1 N5O       0.105100
      8 O4'          2.0400    -2.8190     5.3930 os         1 N5O      -0.358600
      9 C3'         -0.0350    -2.8190     4.2480 c3         1 N5O       0.136100
     10 O3'         -0.6420    -3.5930     3.2110 oh         1 N5O      -0.559800
     11 C2'         -0.2150    -3.5140     5.6190 c3         1 N5O       0.116100
     12 O2'         -0.9420    -4.7350     5.4700 oh         1 N5O      -0.541800
     13 C1'          1.2300    -3.7890     6.0920 c3         1 N5O       0.145800
     14 N9           1.3380    -3.5960     7.5390 na         1 N5O       0.202000
     15 C8           1.7160    -2.4500     8.1740 cc         1 N5O       0.260700
     16 N7           1.7040    -2.6310     9.4620 nd         1 N5O      -0.496100
     17 C5           1.3120    -3.8980     9.7360 ca         1 N5O      -0.227200
     18 C4           1.0790    -4.5350     8.5050 ca         1 N5O       0.258800
     19 N3           0.6840    -5.8040     8.4990 nb         1 N5O      -0.661000
     20 C2           0.5180    -6.4610     9.6270 ca         1 N5O       0.675900
     21 N1           0.7300    -5.9070    10.8080 nb         1 N5O      -0.723000
     22 C6           1.1270    -4.6440    10.9140 ca         1 N5O       0.589200
     23 N6           1.3470    -4.0720    12.1540 nv         1 N5O      -0.517500
     24 HO53        -0.3140    -0.0290    -0.8880 ho         1 N5O       0.397000
     25 H521         1.7900     0.8850    -0.5100 h1         1 N5O      -0.006800
     26 H522         1.7900    -0.8840    -0.5110 h1         1 N5O      -0.006800
     27 H511         1.5060     0.8360     1.9780 h1         1 N5O       0.034200
     28 H512         3.0180     0.0890     1.4430 h1         1 N5O       0.034200
     29 HN5'         1.0790    -1.9640     1.5760 hn         1 N5O       0.185500
     30 H4'          1.8340    -3.6160     3.4780 h1         1 N5O       0.048700
     31 H3'         -0.4490    -1.8190     4.2750 h1         1 N5O       0.024700
     32 HO3'        -1.4990    -3.2490     3.0220 ho         1 N5O       0.395000
     33 H2'         -0.7180    -2.8510     6.3130 h1         1 N5O       0.022700
     34 HO2'        -1.8200    -4.6190     5.7930 ho         1 N5O       0.392000
     35 H1'          1.5280    -4.7940     5.8170 h2         1 N5O       0.068700
     36 H8           1.9870    -1.5260     7.6780 h5         1 N5O       0.048800
     37 H2           0.1950    -7.4940     9.5860 h5         1 N5O      -0.003900
     38 HN61         1.7480    -4.6170    12.8920 hn         1 N5O       0.276300
     39 HN62         1.1090    -3.1130    12.3130 hn         1 N5O       0.276300
@<TRIPOS>BOND
     1     1     2 1   
     2     1    24 1   
     3     2     3 1   
     4     2    25 1   
     5     2    26 1   
     6     3     4 1   
     7     3    27 1   
     8     3    28 1   
     9     4     5 1   
    10     4    29 1   
    11     5     6 2   
    12     5     7 1   
    13     7     8 1   
    14     7     9 1   
    15     7    30 1   
    16     8    13 1   
    17     9    10 1   
    18     9    11 1   
    19     9    31 1   
    20    10    32 1   
    21    11    12 1   
    22    11    13 1   
    23    11    33 1   
    24    12    34 1   
    25    13    14 1   
    26    13    35 1   
    27    14    15 1   
    28    14    18 1   
    29    15    16 2   
    30    15    36 1   
    31    16    17 1   
    32    17    18 ar  
    33    17    22 ar  
    34    18    19 ar  
    35    19    20 ar  
    36    20    21 ar  
    37    20    37 1   
    38    21    22 ar  
    39    22    23 1   
    40    23    38 1   
    41    23    39 1   
@<TRIPOS>SUBSTRUCTURE
     1 N5O         1 TEMP              0 ****  ****    0 ROOT
