@<TRIPOS>MOLECULE
N5T
   42    44     1     0     0
SMALL
bcc


@<TRIPOS>ATOM
      1 C1           0.0000     0.0000     0.0000 ca         1 N5T       0.096900
      2 C2           1.3820     0.0000     0.0000 ca         1 N5T      -0.103000
      3 C3           2.0770     0.0000     1.2110 ca         1 N5T      -0.031800
      4 C4           1.3690    -0.0060     2.4150 ca         1 N5T       0.107900
      5 C5          -0.0140    -0.0010     2.4010 ca         1 N5T      -0.105000
      6 C6          -0.6960    -0.0020     1.1990 ca         1 N5T      -0.105000
      7 C10          3.5540    -0.0000     1.2180 ce         1 N5T      -0.100400
      8 C11          4.4180    -1.1910     1.5410 c3         1 N5T       0.069200
      9 N12          5.8170    -0.7570     1.4320 n          1 N5T      -0.185800
     10 C13          5.7670     0.6620     1.0570 c3         1 N5T       0.142200
     11 C14          4.3150     1.0430     0.9420 c2         1 N5T      -0.117200
     12 C17          6.4360     1.5070     2.1120 ca         1 N5T      -0.091300
     13 C19          7.2230     2.5810     1.7410 ca         1 N5T      -0.082000
     14 C20          7.8360     3.3550     2.7080 ca         1 N5T      -0.100000
     15 C21          7.6630     3.0540     4.0470 ca         1 N5T      -0.098000
     16 C22          6.8760     1.9800     4.4170 ca         1 N5T      -0.100000
     17 C23          6.2590     1.2080     3.4500 ca         1 N5T      -0.082000
     18 C29          6.9190    -1.5060     1.6380 c          1 N5T       0.637100
     19 N30          6.8040    -2.7480     2.1460 n          1 N5T      -0.185800
     20 C31          8.0030    -3.4930     2.5380 c3         1 N5T       0.078300
     21 C35          5.4800    -3.3560     2.3040 c3         1 N5T       0.078300
     22 O39          8.0160    -1.0580     1.3680 o          1 N5T      -0.685100
     23 F40          2.0330    -0.0060     3.5910 f          1 N5T      -0.121900
     24 F41         -0.6740    -0.0000    -1.1710 f          1 N5T      -0.123900
     25 H2           1.9250     0.0030    -0.9370 ha         1 N5T       0.128000
     26 H5          -0.5640    -0.0040     3.3340 ha         1 N5T       0.125000
     27 H6          -1.7790     0.0000     1.1930 ha         1 N5T       0.124000
     28 H111         4.2240    -1.9880     0.8340 h1         1 N5T       0.037200
     29 H112         4.2160    -1.5280     2.5510 h1         1 N5T       0.037200
     30 H13          6.2580     0.8040     0.1020 h1         1 N5T       0.042700
     31 H14          4.0010     1.7600     0.1930 ha         1 N5T       0.130000
     32 H19          7.3580     2.8160     0.6920 ha         1 N5T       0.103500
     33 H20          8.4530     4.1960     2.4170 ha         1 N5T       0.100500
     34 H21          8.1450     3.6590     4.8050 ha         1 N5T       0.100000
     35 H22          6.7390     1.7450     5.4650 ha         1 N5T       0.100500
     36 H23          5.6420     0.3670     3.7410 ha         1 N5T       0.103500
     37 H311         8.5830    -2.9030     3.2370 h1         1 N5T       0.012867
     38 H312         8.6010    -3.7030     1.6590 h1         1 N5T       0.012867
     39 H313         7.7120    -4.4250     3.0070 h1         1 N5T       0.012867
     40 H351         4.9250    -2.8200     3.0640 h1         1 N5T       0.012867
     41 H352         4.9440    -3.3040     1.3630 h1         1 N5T       0.012867
     42 H353         5.5910    -4.3920     2.6000 h1         1 N5T       0.012867
@<TRIPOS>BOND
     1     1     2 ar  
     2     1     6 ar  
     3     1    24 1   
     4     2     3 ar  
     5     2    25 1   
     6     3     4 ar  
     7     3     7 1   
     8     4     5 ar  
     9     4    23 1   
    10     5     6 ar  
    11     5    26 1   
    12     6    27 1   
    13     7     8 1   
    14     7    11 2   
    15     8     9 1   
    16     8    28 1   
    17     8    29 1   
    18     9    10 1   
    19     9    18 1   
    20    10    11 1   
    21    10    12 1   
    22    10    30 1   
    23    11    31 1   
    24    12    13 ar  
    25    12    17 ar  
    26    13    14 ar  
    27    13    32 1   
    28    14    15 ar  
    29    14    33 1   
    30    15    16 ar  
    31    15    34 1   
    32    16    17 ar  
    33    16    35 1   
    34    17    36 1   
    35    18    19 1   
    36    18    22 2   
    37    19    20 1   
    38    19    21 1   
    39    20    37 1   
    40    20    38 1   
    41    20    39 1   
    42    21    40 1   
    43    21    41 1   
    44    21    42 1   
@<TRIPOS>SUBSTRUCTURE
     1 N5T         1 TEMP              0 ****  ****    0 ROOT
