@<TRIPOS>MOLECULE
molecule
   45    47     1     0     0
SMALL
bcc


@<TRIPOS>ATOM
      1 CAY          0.0000     0.0000     0.0000 ca         1 N5Y      -0.114500
      2 CAZ          1.3830     0.0000     0.0000 ca         1 N5Y      -0.108000
      3 CBA          2.0740     0.0000     1.1970 ca         1 N5Y      -0.091000
      4 CAX          1.3830    -0.0020     2.3940 ca         1 N5Y      -0.108000
      5 CAW          0.0010    -0.0030     2.3950 ca         1 N5Y      -0.114500
      6 CAV         -0.6910    -0.0020     1.1980 ca         1 N5Y      -0.155300
      7 CAU         -2.1980     0.0030     1.1980 c3         1 N5Y       0.147300
      8 NAN         -2.6910    -1.3760     1.1930 n          1 N5Y      -0.365000
      9 CAO         -2.9210    -2.0230     2.3860 cc         1 N5Y       0.045600
     10 NAP         -2.6920    -1.3840     3.5800 nz         1 N5Y      -0.668400
     11 CAM         -2.9220    -2.0000     0.0240 c          1 N5Y       0.817500
     12 OAL         -2.7170    -1.4090    -1.0180 o          1 N5Y      -0.591500
     13 NAD         -3.3750    -3.2650    -0.0130 ns         1 N5Y      -0.549500
     14 CAE         -3.6110    -3.9470     1.1250 c          1 N5Y       0.685700
     15 OAA         -4.0220    -5.0930     1.0810 o          1 N5Y      -0.532500
     16 CAF         -3.3860    -3.3230     2.3670 cd         1 N5Y      -0.013600
     17 NAG         -3.6310    -4.0130     3.5720 n          1 N5Y      -0.413000
     18 OAC         -4.7220    -4.1100     5.5060 o          1 N5Y      -0.514100
     19 CA0         -4.5510    -3.5480     4.4400 c          1 N5Y       0.641700
     20 CAT         -5.3530    -2.3540     4.0990 ca         1 N5Y      -0.223600
     21 CAS         -5.9070    -1.5680     5.1100 ca         1 N5Y      -0.105000
     22 CAR         -6.6540    -0.4560     4.7840 ca         1 N5Y      -0.130000
     23 CAI         -6.8550    -0.1180     3.4570 ca         1 N5Y      -0.083000
     24 CAJ         -6.3100    -0.8930     2.4490 ca         1 N5Y      -0.130000
     25 CAA         -2.8870    -5.2370     3.8800 c3         1 N5Y       0.100300
     26 CAK         -5.5550    -2.0050     2.7620 ca         1 N5Y      -0.105000
     27 HAW         -0.5400    -0.0040     3.3330 ha         1 N5Y       0.120000
     28 HAX          1.9250    -0.0030     3.3320 ha         1 N5Y       0.152500
     29 HBA          3.1570     0.0000     1.1970 ha         1 N5Y       0.156000
     30 HAZ          1.9240     0.0020    -0.9380 ha         1 N5Y       0.152500
     31 HAY         -0.5420     0.0000    -0.9380 ha         1 N5Y       0.120000
     32 HAU1        -2.5580     0.5190     0.3160 h1         1 N5Y       0.081200
     33 HAU2        -2.5570     0.5120     2.0850 h1         1 N5Y       0.081200
     34 HAP1        -3.1310    -0.4840     3.5660 hn         1 N5Y       0.474133
     35 HAP2        -1.7060    -1.2720     3.7140 hn         1 N5Y       0.474133
     36 HAD         -3.5380    -3.7070    -0.8960 hn         1 N5Y       0.396500
     37 HAA1        -2.4640    -5.1610     4.8750 h1         1 N5Y       0.070700
     38 HAA2        -2.0900    -5.3670     3.1580 h1         1 N5Y       0.070700
     39 HAA3        -3.5560    -6.0880     3.8370 h1         1 N5Y       0.070700
     40 HAI         -7.4440     0.7560     3.2060 ha         1 N5Y       0.159000
     41 HAJ         -6.4690    -0.6210     1.4130 ha         1 N5Y       0.159000
     42 HAR         -7.0850     0.1550     5.5680 ha         1 N5Y       0.159000
     43 HAK         -5.1290    -2.6110     1.9720 ha         1 N5Y       0.153000
     44 HAS         -5.7510    -1.8320     6.1490 ha         1 N5Y       0.153000
     45 HAP3        -3.0500    -1.9400     4.3300 hn         1 N5Y       0.474133
@<TRIPOS>BOND
     1     5     4 ar
     2     5     6 ar
     3     4     3 ar
     4     3     2 ar
     5     2     1 ar
     6     1     6 ar
     7     6     7 1
     8     7     8 1
     9     8     9 1
    10     8    11 1
    11     9    10 1
    12     9    16 2
    13    11    12 2
    14    11    13 1
    15    13    14 1
    16    14    15 2
    17    14    16 1
    18    16    17 1
    19    17    19 1
    20    17    25 1
    21    18    19 2
    22    23    24 ar
    23    23    22 ar
    24    24    26 ar
    25    19    20 1
    26    26    20 ar
    27    20    21 ar
    28    21    22 ar
    29     5    27 1
    30     4    28 1
    31     3    29 1
    32     2    30 1
    33     1    31 1
    34     7    32 1
    35     7    33 1
    36    10    34 1
    37    10    35 1
    38    13    36 1
    39    25    37 1
    40    25    38 1
    41    25    39 1
    42    23    40 1
    43    24    41 1
    44    22    42 1
    45    26    43 1
    46    21    44 1
    47    45    10 1
@<TRIPOS>SUBSTRUCTURE
     1 N5Y         1 TEMP              0 ****  ****    0 ROOT
