@<TRIPOS>MOLECULE
N5Y
   45    47     1     0     0
SMALL
bcc


@<TRIPOS>ATOM
      1 CAY          0.0000     0.0000     0.0000 ca         1 N5Y      -0.087500
      2 CAZ          1.3830     0.0000     0.0000 ca         1 N5Y      -0.075500
      3 CBA          2.0740     0.0000     1.1970 ca         1 N5Y      -0.058000
      4 CAX          1.3830    -0.0020     2.3940 ca         1 N5Y      -0.075500
      5 CAW          0.0010    -0.0030     2.3950 ca         1 N5Y      -0.087500
      6 CAV         -0.6910    -0.0020     1.1980 ca         1 N5Y      -0.174300
      7 CAU         -2.1980     0.0030     1.1980 c3         1 N5Y       0.084300
      8 NAN         -2.6910    -1.3760     1.1930 n          1 N5Y       0.065000
      9 CAO         -2.9210    -2.0230     2.3860 cc         1 N5Y      -0.337400
     10 NAP         -2.6920    -1.3840     3.5800 nz         1 N5Y       0.219600
     11 CAM         -2.9220    -2.0000     0.0240 c          1 N5Y       0.590500
     12 OAL         -2.7170    -1.4090    -1.0180 o          1 N5Y      -0.635500
     13 NAD         -3.3750    -3.2650    -0.0130 ns         1 N5Y      -0.099500
     14 CAE         -3.6110    -3.9470     1.1250 c          1 N5Y       0.581700
     15 OAA         -4.0220    -5.0930     1.0810 o          1 N5Y      -0.574500
     16 CAF         -3.3860    -3.3230     2.3670 cd         1 N5Y      -0.095600
     17 NAG         -3.6310    -4.0130     3.5720 n          1 N5Y      -0.039000
     18 OAC         -4.7220    -4.1100     5.5060 o          1 N5Y      -0.544100
     19 CA0         -4.5510    -3.5480     4.4400 c          1 N5Y       0.569700
     20 CAT         -5.3530    -2.3540     4.0990 ca         1 N5Y      -0.235600
     21 CAS         -5.9070    -1.5680     5.1100 ca         1 N5Y      -0.090500
     22 CAR         -6.6540    -0.4560     4.7840 ca         1 N5Y      -0.095500
     23 CAI         -6.8550    -0.1180     3.4570 ca         1 N5Y      -0.048000
     24 CAJ         -6.3100    -0.8930     2.4490 ca         1 N5Y      -0.095500
     25 CAA         -2.8870    -5.2370     3.8800 c3         1 N5Y       0.084300
     26 CAK         -5.5550    -2.0050     2.7620 ca         1 N5Y      -0.090500
     27 HAW         -0.5400    -0.0040     3.3330 ha         1 N5Y       0.098500
     28 HAX          1.9250    -0.0030     3.3320 ha         1 N5Y       0.120000
     29 HBA          3.1570     0.0000     1.1970 ha         1 N5Y       0.122000
     30 HAZ          1.9240     0.0020    -0.9380 ha         1 N5Y       0.120000
     31 HAY         -0.5420     0.0000    -0.9380 ha         1 N5Y       0.098500
     32 HAU1        -2.5580     0.5190     0.3160 h1         1 N5Y       0.050700
     33 HAU2        -2.5570     0.5120     2.0850 h1         1 N5Y       0.050700
     34 HAP1        -3.1310    -0.4840     3.5660 hn         1 N5Y       0.235800
     35 HAP2        -1.7060    -1.2720     3.7140 hn         1 N5Y       0.235800
     36 HAD         -3.5380    -3.7070    -0.8960 hn         1 N5Y       0.233500
     37 HAA1        -2.4640    -5.1610     4.8750 h1         1 N5Y       0.035367
     38 HAA2        -2.0900    -5.3670     3.1580 h1         1 N5Y       0.035367
     39 HAA3        -3.5560    -6.0880     3.8370 h1         1 N5Y       0.035367
     40 HAI         -7.4440     0.7560     3.2060 ha         1 N5Y       0.125000
     41 HAJ         -6.4690    -0.6210     1.4130 ha         1 N5Y       0.126500
     42 HAR         -7.0850     0.1550     5.5680 ha         1 N5Y       0.126500
     43 HAK         -5.1290    -2.6110     1.9720 ha         1 N5Y       0.130000
     44 HAS         -5.7510    -1.8320     6.1490 ha         1 N5Y       0.130000
     45 HAP3        -3.0500    -1.9400     4.3300 hn         1 N5Y       0.235800
@<TRIPOS>BOND
     1     1     2 ar  
     2     1     6 ar  
     3     1    31 1   
     4     2     3 ar  
     5     2    30 1   
     6     3     4 ar  
     7     3    29 1   
     8     4     5 ar  
     9     4    28 1   
    10     5     6 ar  
    11     5    27 1   
    12     6     7 1   
    13     7     8 1   
    14     7    32 1   
    15     7    33 1   
    16     8     9 1   
    17     8    11 1   
    18     9    10 1   
    19     9    16 2   
    20    10    34 1   
    21    10    35 1   
    22    10    45 1   
    23    11    12 2   
    24    11    13 1   
    25    13    14 1   
    26    13    36 1   
    27    14    15 2   
    28    14    16 1   
    29    16    17 1   
    30    17    19 1   
    31    17    25 1   
    32    18    19 2   
    33    19    20 1   
    34    20    21 ar  
    35    20    26 ar  
    36    21    22 ar  
    37    21    44 1   
    38    22    23 ar  
    39    22    42 1   
    40    23    24 ar  
    41    23    40 1   
    42    24    26 ar  
    43    24    41 1   
    44    25    37 1   
    45    25    38 1   
    46    25    39 1   
    47    26    43 1   
@<TRIPOS>SUBSTRUCTURE
     1 N5Y         1 TEMP              0 ****  ****    0 ROOT
