@<TRIPOS>MOLECULE
molecule
   50    52     1     0     0
SMALL
bcc


@<TRIPOS>ATOM
      1 O1           0.0000     0.0000     0.0000 o          1 N61      -0.619100
      2 C9           1.2160     0.0000     0.0000 c          1 N61       0.792100
      3 N3           1.8900     0.0000     1.1680 ns         1 N61      -0.466100
      4 C8           1.1910     0.0010     2.3750 cc         1 N61       0.067300
      5 C7          -0.1620    -0.0060     2.5220 cd         1 N61      -0.344300
      6 C2          -0.4440    -0.0050     3.8910 cd         1 N61       0.361600
      7 C3          -1.8190    -0.0110     4.5080 c3         1 N61      -0.082300
      8 C6          -2.7070     1.0020     3.7850 c3         1 N61      -0.080100
      9 C5          -2.4290    -1.4080     4.3800 c3         1 N61      -0.080100
     10 C4          -1.7150     0.3660     5.9880 c3         1 N61      -0.080100
     11 N2           0.6900     0.0020     4.5440 nc         1 N61      -0.509800
     12 N1           1.7360     0.0000     3.6130 na         1 N61       0.036400
     13 C1           3.1670     0.0010     3.9260 c3         1 N61       0.062600
     14 N4           1.8910    -0.0050    -1.1670 ns         1 N61      -0.490100
     15 C10          1.1960    -0.1320    -2.3760 ca         1 N61       0.070600
     16 C20         -0.0530     0.4550    -2.5250 ca         1 N61      -0.135500
     17 C19         -0.7380     0.3300    -3.7180 ca         1 N61      -0.119500
     18 C13         -0.1770    -0.3820    -4.7680 ca         1 N61       0.078100
     19 C12          1.0720    -0.9690    -4.6210 ca         1 N61      -0.119500
     20 C11          1.7600    -0.8390    -3.4310 ca         1 N61      -0.135500
     21 O2          -0.8540    -0.5100    -5.9400 os         1 N61      -0.240200
     22 C14         -0.8430     0.5400    -6.8000 ca         1 N61       0.168100
     23 C18         -0.2700     1.7560    -6.4350 ca         1 N61      -0.310300
     24 C17         -0.2750     2.7990    -7.3400 ca         1 N61       0.449700
     25 N5          -0.8130     2.6530    -8.5360 nb         1 N61      -0.717000
     26 C16         -1.3650     1.5170    -8.9180 ca         1 N61       0.449700
     27 C15         -1.4010     0.4280    -8.0720 ca         1 N61      -0.310300
     28 H1           2.8900    -0.0230     1.1690 hn         1 N61       0.316500
     29 H2          -0.8880    -0.0810     1.7220 ha         1 N61       0.199000
     30 H3          -3.6260     1.1390     4.3420 hc         1 N61       0.039256
     31 H4          -2.1870     1.9490     3.7090 hc         1 N61       0.039256
     32 H5          -2.9380     0.6360     2.7920 hc         1 N61       0.039256
     33 H6          -1.7440    -2.1400     4.7900 hc         1 N61       0.039256
     34 H7          -3.3650    -1.4450     4.9240 hc         1 N61       0.039256
     35 H8          -2.6100    -1.6280     3.3350 hc         1 N61       0.039256
     36 H9          -1.2540     1.3410     6.0800 hc         1 N61       0.039256
     37 H10         -1.1120    -0.3700     6.5060 hc         1 N61       0.039256
     38 H11         -2.7060     0.3920     6.4240 hc         1 N61       0.039256
     39 H12          3.6320    -0.8770     3.4940 h1         1 N61       0.050367
     40 H13          3.3020    -0.0110     5.0010 h1         1 N61       0.050367
     41 H14          3.6260     0.8920     3.5140 h1         1 N61       0.050367
     42 H15          2.8840     0.1200    -1.1710 hn         1 N61       0.320500
     43 H16         -0.4920     1.0110    -1.7050 ha         1 N61       0.156000
     44 H17         -1.7130     0.7880    -3.8330 ha         1 N61       0.150000
     45 H18          1.5100    -1.5220    -5.4420 ha         1 N61       0.150000
     46 H19          2.7350    -1.2970    -3.3160 ha         1 N61       0.156000
     47 H20          0.1730     1.8810    -5.4540 ha         1 N61       0.150500
     48 H21          0.1690     3.7480    -7.0640 h4         1 N61       0.025600
     49 H22         -1.7960     1.4390    -9.9090 h4         1 N61       0.025600
     50 H23         -1.8560    -0.5020    -8.3920 ha         1 N61       0.150500
@<TRIPOS>BOND
     1    24    25 ar
     2    24    23 ar
     3    25    26 ar
     4    23    22 ar
     5    26    27 ar
     6    22    27 ar
     7    22    21 1
     8    21    18 1
     9    18    19 ar
    10    18    17 ar
    11    19    20 ar
    12    17    16 ar
    13    20    15 ar
    14    16    15 ar
    15    15    14 1
    16    14     2 1
    17     2     1 2
    18     2     3 1
    19     3     4 1
    20     5     4 2
    21     5     6 1
    22     4    12 1
    23    10     7 1
    24    12    13 1
    25    12    11 1
    26     6     7 1
    27     6    11 2
    28     8     7 1
    29     7     9 1
    30     3    28 1
    31     5    29 1
    32     8    30 1
    33     8    31 1
    34     8    32 1
    35     9    33 1
    36     9    34 1
    37     9    35 1
    38    10    36 1
    39    10    37 1
    40    10    38 1
    41    13    39 1
    42    13    40 1
    43    13    41 1
    44    14    42 1
    45    16    43 1
    46    17    44 1
    47    19    45 1
    48    20    46 1
    49    23    47 1
    50    24    48 1
    51    26    49 1
    52    27    50 1
@<TRIPOS>SUBSTRUCTURE
     1 N61         1 TEMP              0 ****  ****    0 ROOT
