@<TRIPOS>MOLECULE
N61
   50    52     1     0     0
SMALL
bcc


@<TRIPOS>ATOM
      1 O1           0.0000     0.0000     0.0000 o          1 N61      -0.668100
      2 C9           1.2160     0.0000     0.0000 c          1 N61       0.556100
      3 N3           1.8900     0.0000     1.1680 ns         1 N61      -0.006100
      4 C8           1.1910     0.0010     2.3750 cc         1 N61      -0.233700
      5 C7          -0.1620    -0.0060     2.5220 cd         1 N61      -0.334300
      6 C2          -0.4440    -0.0050     3.8910 cd         1 N61       0.386600
      7 C3          -1.8190    -0.0110     4.5080 c3         1 N61      -0.080300
      8 C6          -2.7070     1.0020     3.7850 c3         1 N61       0.006900
      9 C5          -2.4290    -1.4080     4.3800 c3         1 N61       0.006900
     10 C4          -1.7150     0.3660     5.9880 c3         1 N61       0.006900
     11 N2           0.6900     0.0020     4.5440 nc         1 N61      -0.643800
     12 N1           1.7360     0.0000     3.6130 na         1 N61       0.448400
     13 C1           3.1670     0.0010     3.9260 c3         1 N61       0.027600
     14 N4           1.8910    -0.0050    -1.1670 ns         1 N61      -0.052100
     15 C10          1.1960    -0.1320    -2.3760 ca         1 N61      -0.080400
     16 C20         -0.0530     0.4550    -2.5250 ca         1 N61      -0.105500
     17 C19         -0.7380     0.3300    -3.7180 ca         1 N61      -0.098000
     18 C13         -0.1770    -0.3820    -4.7680 ca         1 N61       0.084100
     19 C12          1.0720    -0.9690    -4.6210 ca         1 N61      -0.098000
     20 C11          1.7600    -0.8390    -3.4310 ca         1 N61      -0.105500
     21 O2          -0.8540    -0.5100    -5.9400 os         1 N61      -0.212200
     22 C14         -0.8430     0.5400    -6.8000 ca         1 N61       0.175100
     23 C18         -0.2700     1.7560    -6.4350 ca         1 N61      -0.295300
     24 C17         -0.2750     2.7990    -7.3400 ca         1 N61       0.442700
     25 N5          -0.8130     2.6530    -8.5360 nb         1 N61      -0.618000
     26 C16         -1.3650     1.5170    -8.9180 ca         1 N61       0.442700
     27 C15         -1.4010     0.4280    -8.0720 ca         1 N61      -0.295300
     28 H1           2.8900    -0.0230     1.1690 hn         1 N61       0.152500
     29 H2          -0.8880    -0.0810     1.7220 ha         1 N61       0.191000
     30 H3          -3.6260     1.1390     4.3420 hc         1 N61       0.007478
     31 H4          -2.1870     1.9490     3.7090 hc         1 N61       0.007478
     32 H5          -2.9380     0.6360     2.7920 hc         1 N61       0.007478
     33 H6          -1.7440    -2.1400     4.7900 hc         1 N61       0.007478
     34 H7          -3.3650    -1.4450     4.9240 hc         1 N61       0.007478
     35 H8          -2.6100    -1.6280     3.3350 hc         1 N61       0.007478
     36 H9          -1.2540     1.3410     6.0800 hc         1 N61       0.007478
     37 H10         -1.1120    -0.3700     6.5060 hc         1 N61       0.007478
     38 H11         -2.7060     0.3920     6.4240 hc         1 N61       0.007478
     39 H12          3.6320    -0.8770     3.4940 h1         1 N61       0.017367
     40 H13          3.3020    -0.0110     5.0010 h1         1 N61       0.017367
     41 H14          3.6260     0.8920     3.5140 h1         1 N61       0.017367
     42 H15          2.8840     0.1200    -1.1710 hn         1 N61       0.161500
     43 H16         -0.4920     1.0110    -1.7050 ha         1 N61       0.130000
     44 H17         -1.7130     0.7880    -3.8330 ha         1 N61       0.119000
     45 H18          1.5100    -1.5220    -5.4420 ha         1 N61       0.119000
     46 H19          2.7350    -1.2970    -3.3160 ha         1 N61       0.130000
     47 H20          0.1730     1.8810    -5.4540 ha         1 N61       0.130000
     48 H21          0.1690     3.7480    -7.0640 h4         1 N61      -0.021400
     49 H22         -1.7960     1.4390    -9.9090 h4         1 N61      -0.021400
     50 H23         -1.8560    -0.5020    -8.3920 ha         1 N61       0.130000
@<TRIPOS>BOND
     1     1     2 2   
     2     2     3 1   
     3     2    14 1   
     4     3     4 1   
     5     3    28 1   
     6     4     5 2   
     7     4    12 1   
     8     5     6 1   
     9     5    29 1   
    10     6     7 1   
    11     6    11 2   
    12     7     8 1   
    13     7     9 1   
    14     7    10 1   
    15     8    30 1   
    16     8    31 1   
    17     8    32 1   
    18     9    33 1   
    19     9    34 1   
    20     9    35 1   
    21    10    36 1   
    22    10    37 1   
    23    10    38 1   
    24    11    12 1   
    25    12    13 1   
    26    13    39 1   
    27    13    40 1   
    28    13    41 1   
    29    14    15 1   
    30    14    42 1   
    31    15    16 ar  
    32    15    20 ar  
    33    16    17 ar  
    34    16    43 1   
    35    17    18 ar  
    36    17    44 1   
    37    18    19 ar  
    38    18    21 1   
    39    19    20 ar  
    40    19    45 1   
    41    20    46 1   
    42    21    22 1   
    43    22    23 ar  
    44    22    27 ar  
    45    23    24 ar  
    46    23    47 1   
    47    24    25 ar  
    48    24    48 1   
    49    25    26 ar  
    50    26    27 ar  
    51    26    49 1   
    52    27    50 1   
@<TRIPOS>SUBSTRUCTURE
     1 N61         1 TEMP              0 ****  ****    0 ROOT
