@<TRIPOS>MOLECULE
N66
   81    86     1     0     0
SMALL
bcc


@<TRIPOS>ATOM
      1 CBK          0.0000     0.0000     0.0000 c3         1 N66       0.091800
      2 CBL          1.5300     0.0000     0.0000 c3         1 N66       0.155800
      3 NBM          2.0180     0.0000     1.3860 n3         1 N66      -0.541600
      4 CBP          1.6360    -1.2380     2.0780 c3         1 N66       0.167100
      5 CBN          1.5300     1.1810     2.1120 c3         1 N66       0.155800
      6 CBO         -0.0000     1.1810     2.1130 c3         1 N66       0.091800
      7 NBJ         -0.4880     1.1810     0.7260 nh         1 N66      -0.354000
      8 CAV         -1.8850     1.2520     0.6860 ca         1 N66       0.050600
      9 CAW         -2.5440     2.3000     1.3160 ca         1 N66      -0.223000
     10 CAX         -3.9260     2.3710     1.2750 ca         1 N66       0.149100
     11 OBH         -4.5730     3.3950     1.8920 os         1 N66      -0.316900
     12 CBI         -3.7650     4.3650     2.5620 c3         1 N66       0.248700
     13 CAU         -2.6110     0.2800     0.0110 ca         1 N66      -0.188000
     14 CAT         -3.9900     0.3490    -0.0300 ca         1 N66      -0.047000
     15 CAS         -4.6530     1.3910     0.6030 ca         1 N66      -0.066400
     16 NAR         -6.0540     1.4600     0.5610 nu         1 N66      -0.254300
     17 C2          -6.7400     0.9440    -0.5250 ca         1 N66       0.714900
     18 N3          -8.0660     0.9050    -0.4950 nb         1 N66      -0.694000
     19 C4          -8.7420     0.4170    -1.5200 ca         1 N66       0.387800
     20 N1          -6.0570     0.5050    -1.5740 nb         1 N66      -0.697000
     21 C6          -6.6760     0.0180    -2.6390 ca         1 N66       0.508200
     22 C5          -8.0580    -0.0300    -2.6500 ca         1 N66      -0.411900
     23 CAG         -8.7910    -0.5120    -3.8710 c3         1 N66       0.046900
     24 CAH        -10.0890    -1.2310    -3.4960 c3         1 N66       0.054900
     25 CAI        -10.8000    -0.4310    -2.4330 cc         1 N66      -0.217600
     26 NAJ        -10.1350     0.3340    -1.5120 na         1 N66       0.442100
     27 CAK        -11.0240     0.9320    -0.6750 cc         1 N66      -0.285300
     28 CAM        -12.2720     0.5910    -1.0480 cd         1 N66      -0.160000
     29 CAL        -12.1340    -0.3130    -2.2050 cd         1 N66      -0.231600
     30 CAN        -13.2210    -0.9440    -2.9700 c          1 N66       0.628700
     31 OAO        -12.9630    -1.6590    -3.9190 o          1 N66      -0.655100
     32 NAP        -14.5050    -0.7300    -2.6180 ns         1 N66      -0.052100
     33 CAQ        -15.5340    -1.4140    -3.2750 ca         1 N66      -0.085400
     34 CAY        -15.7230    -1.2410    -4.6400 ca         1 N66      -0.071800
     35 CBD        -14.8210    -0.3160    -5.4150 c3         1 N66       0.024400
     36 CBE        -13.9590    -1.1350    -6.3790 c3         1 N66       0.004900
     37 CAZ        -16.7390    -1.9180    -5.2850 ca         1 N66      -0.100500
     38 CBA        -17.5680    -2.7670    -4.5740 ca         1 N66      -0.094000
     39 CBB        -17.3810    -2.9410    -3.2150 ca         1 N66      -0.100500
     40 CBC        -16.3640    -2.2710    -2.5640 ca         1 N66      -0.071800
     41 CBF        -16.1580    -2.4660    -1.0840 c3         1 N66       0.024400
     42 CBG        -16.8880    -1.3610    -0.3180 c3         1 N66       0.004900
     43 H1          -0.3600    -0.8970     0.4880 h1         1 N66       0.027200
     44 H2          -0.3600     0.0310    -1.0210 h1         1 N66       0.027200
     45 H3           1.8900    -0.8860    -0.5080 h1         1 N66       0.030450
     46 H4           1.8900     0.8860    -0.5080 h1         1 N66       0.030450
     47 H6           2.0230    -1.2200     3.0900 h1         1 N66       0.005367
     48 H7           0.5560    -1.3180     2.1060 h1         1 N66       0.005367
     49 H8           2.0480    -2.0890     1.5500 h1         1 N66       0.005367
     50 H9           1.8900     1.1500     3.1330 h1         1 N66       0.030450
     51 H10          1.8900     2.0780     1.6240 h1         1 N66       0.030450
     52 H11         -0.3600     2.0680     2.6210 h1         1 N66       0.027200
     53 H12         -0.3610     0.2950     2.6220 h1         1 N66       0.027200
     54 H13         -1.9750     3.0970     1.7790 ha         1 N66       0.134000
     55 H14         -3.2020     3.8820     3.3520 h1         1 N66      -0.000967
     56 H15         -4.4000     5.1320     2.9880 h1         1 N66      -0.000967
     57 H16         -3.0800     4.8160     1.8540 h1         1 N66      -0.000967
     58 H17         -2.0950    -0.5340    -0.4840 ha         1 N66       0.125000
     59 H18         -4.5540    -0.4120    -0.5550 ha         1 N66       0.140000
     60 H19         -6.5590     1.8450     1.3350 hn         1 N66       0.298800
     61 H20         -6.1080    -0.3370    -3.4890 h4         1 N66      -0.011900
     62 H21         -8.1540    -1.2250    -4.3800 hc         1 N66       0.027700
     63 H22         -9.0530     0.3560    -4.4630 hc         1 N66       0.027700
     64 H23        -10.7220    -1.2680    -4.3740 hc         1 N66       0.050200
     65 H24         -9.8330    -2.1970    -3.0780 hc         1 N66       0.050200
     66 H25        -10.7700     1.5890     0.1490 h4         1 N66       0.157000
     67 H26        -13.1880     1.0670    -0.7170 ha         1 N66       0.127000
     68 H27        -14.7250    -0.0440    -1.9230 hn         1 N66       0.174500
     69 H28        -14.1810     0.2250    -4.7290 hc         1 N66       0.018450
     70 H29        -15.4230     0.3870    -5.9780 hc         1 N66       0.018450
     71 H30        -12.9800    -0.6790    -6.4630 hc         1 N66       0.005700
     72 H31        -14.4310    -1.1600    -7.3540 hc         1 N66       0.005700
     73 H32        -13.8550    -2.1450    -6.0020 hc         1 N66       0.005700
     74 H33        -16.8880    -1.7840    -6.3500 ha         1 N66       0.107000
     75 H34        -18.3650    -3.2950    -5.0820 ha         1 N66       0.101000
     76 H35        -18.0300    -3.6090    -2.6610 ha         1 N66       0.107000
     77 H36        -15.0990    -2.4230    -0.8590 hc         1 N66       0.018450
     78 H37        -16.5510    -3.4310    -0.7890 hc         1 N66       0.018450
     79 H38        -16.2300    -0.9510     0.4390 hc         1 N66       0.005700
     80 H39        -17.7710    -1.7730     0.1560 hc         1 N66       0.005700
     81 H40        -17.1800    -0.5770    -1.0050 hc         1 N66       0.005700
@<TRIPOS>BOND
     1     1     2 1   
     2     1     7 1   
     3     1    43 1   
     4     1    44 1   
     5     2     3 1   
     6     2    45 1   
     7     2    46 1   
     8     3     4 1   
     9     3     5 1   
    10     4    47 1   
    11     4    48 1   
    12     4    49 1   
    13     5     6 1   
    14     5    50 1   
    15     5    51 1   
    16     6     7 1   
    17     6    52 1   
    18     6    53 1   
    19     7     8 1   
    20     8     9 ar  
    21     8    13 ar  
    22     9    10 ar  
    23     9    54 1   
    24    10    11 1   
    25    10    15 ar  
    26    11    12 1   
    27    12    55 1   
    28    12    56 1   
    29    12    57 1   
    30    13    14 ar  
    31    13    58 1   
    32    14    15 ar  
    33    14    59 1   
    34    15    16 1   
    35    16    17 1   
    36    16    60 1   
    37    17    18 ar  
    38    17    20 ar  
    39    18    19 ar  
    40    19    22 ar  
    41    19    26 1   
    42    20    21 ar  
    43    21    22 ar  
    44    21    61 1   
    45    22    23 1   
    46    23    24 1   
    47    23    62 1   
    48    23    63 1   
    49    24    25 1   
    50    24    64 1   
    51    24    65 1   
    52    25    26 1   
    53    25    29 2   
    54    26    27 1   
    55    27    28 2   
    56    27    66 1   
    57    28    29 1   
    58    28    67 1   
    59    29    30 1   
    60    30    31 2   
    61    30    32 1   
    62    32    33 1   
    63    32    68 1   
    64    33    34 ar  
    65    33    40 ar  
    66    34    35 1   
    67    34    37 ar  
    68    35    36 1   
    69    35    69 1   
    70    35    70 1   
    71    36    71 1   
    72    36    72 1   
    73    36    73 1   
    74    37    38 ar  
    75    37    74 1   
    76    38    39 ar  
    77    38    75 1   
    78    39    40 ar  
    79    39    76 1   
    80    40    41 1   
    81    41    42 1   
    82    41    77 1   
    83    41    78 1   
    84    42    79 1   
    85    42    80 1   
    86    42    81 1   
@<TRIPOS>SUBSTRUCTURE
     1 N66         1 TEMP              0 ****  ****    0 ROOT
