@<TRIPOS>MOLECULE
N68
   27    26     1     0     0
SMALL
bcc


@<TRIPOS>ATOM
      1 N1          0.0000    0.0000    0.0000 nz        1 N68     -0.261600
      2 C1          1.4690    0.0000    0.0000 c3        1 N68     -0.006200
      3 C2          1.9780    0.0000    1.4420 c3        1 N68     -0.033400
      4 C3          3.5090   -0.0000    1.4430 c3        1 N68     -0.027400
      5 C4          4.0180   -0.0000    2.8860 c3        1 N68     -0.026400
      6 C5          5.5480   -0.0010    2.8860 c3        1 N68     -0.056400
      7 C6          6.0580   -0.0010    4.3290 c3        1 N68      0.299400
      8 O           7.4860   -0.0010    4.3290 os        1 N68     -0.487200
      9 P           8.3630   -0.0020    5.6790 p5        1 N68      0.758900
     10 OP1         9.9240   -0.1340    5.3060 o         1 N68     -0.610167
     11 OP2         8.1170    1.3740    6.4800 o         1 N68     -0.610167
     12 OP3         7.9600   -1.1450    6.5290 o         1 N68     -0.610167
     13 HN11       -0.3340    0.8170    0.4720 hn        1 N68      0.176800
     14 HN12       -0.3340    0.0000   -0.9440 hn        1 N68      0.176800
     15 H11         1.8310    0.8850   -0.5100 hx        1 N68      0.040700
     16 H12         1.8310   -0.8850   -0.5100 hx        1 N68      0.040700
     17 H21         1.6160   -0.8840    1.9530 hc        1 N68      0.018700
     18 H22         1.6170    0.8850    1.9530 hc        1 N68      0.018700
     19 H31         3.8700   -0.8850    0.9320 hc        1 N68      0.015700
     20 H32         3.8710    0.8840    0.9320 hc        1 N68      0.015700
     21 H41         3.6570   -0.8850    3.3970 hc        1 N68      0.010700
     22 H42         3.6570    0.8840    3.3960 hc        1 N68      0.010700
     23 H51         5.9090   -0.8860    2.3750 hc        1 N68      0.010700
     24 H52         5.9100    0.8830    2.3750 hc        1 N68      0.010700
     25 H61         5.6960   -0.8850    4.8390 h1        1 N68     -0.027800
     26 H62         5.6970    0.8840    4.8390 h1        1 N68     -0.027800
     27 H13        -0.3340   -0.8180    0.4710 hn        1 N68      0.176800
@<TRIPOS>BOND
     1    1    2 1   
     2    1   13 1   
     3    1   14 1   
     4    1   27 1   
     5    2    3 1   
     6    2   15 1   
     7    2   16 1   
     8    3    4 1   
     9    3   17 1   
    10    3   18 1   
    11    4    5 1   
    12    4   19 1   
    13    4   20 1   
    14    5    6 1   
    15    5   21 1   
    16    5   22 1   
    17    6    7 1   
    18    6   23 1   
    19    6   24 1   
    20    7    8 1   
    21    7   25 1   
    22    7   26 1   
    23    8    9 1   
    24    9   10 1   
    25    9   11 1   
    26    9   12 1   
@<TRIPOS>SUBSTRUCTURE
     1 N68         1 TEMP              0 ****  ****    0 ROOT
