@<TRIPOS>MOLECULE
N68
   26    25     1     0     0
SMALL
bcc


@<TRIPOS>ATOM
      1 N1          0.0450    0.0030   -0.1590 n3        1 N68     -0.908800
      2 C1          1.4800   -0.1120   -0.0310 c3        1 N68      0.138800
      3 C2          2.0470    0.0360    1.3800 c3        1 N68     -0.117400
      4 C3          3.5540   -0.1040    1.3790 c3        1 N68     -0.075400
      5 C4          4.1230    0.0410    2.7750 c3        1 N68     -0.076400
      6 C5          5.6290   -0.0970    2.7880 c3        1 N68     -0.097400
      7 C6          6.1820    0.0540    4.2100 c3        1 N68      0.200400
      8 O           7.5500   -0.0740    4.2030 os        1 N68     -0.566200
      9 P           8.1520    0.1010    5.8300 p5        1 N68      1.312900
     10 OP1         9.6340   -0.0650    5.6340 o         1 N68     -0.937167
     11 OP2         7.6700    1.4850    6.1820 o         1 N68     -0.937167
     12 OP3         7.4380   -1.0220    6.5380 o         1 N68     -0.937167
     13 HN11       -0.4070   -0.6970    0.3990 hn        1 N68      0.331800
     14 HN12       -0.2590    0.9000    0.1720 hn        1 N68      0.331800
     15 H11         1.9470    0.6710   -0.6930 h1        1 N68      0.046700
     16 H12         1.7800   -1.1190   -0.4380 h1        1 N68      0.046700
     17 H21         1.7670    1.0370    1.8000 hc        1 N68      0.033700
     18 H22         1.6020   -0.7430    2.0530 hc        1 N68      0.033700
     19 H31         4.0040    0.6740    0.7080 hc        1 N68      0.030700
     20 H32         3.8380   -1.1050    0.9610 hc        1 N68      0.030700
     21 H41         3.6730   -0.7370    3.4460 hc        1 N68      0.031700
     22 H42         3.8380    1.0430    3.1930 hc        1 N68      0.031700
     23 H51         6.0920    0.6810    2.1290 hc        1 N68      0.019700
     24 H52         5.9270   -1.0970    2.3820 hc        1 N68      0.019700
     25 H61         5.7250   -0.7350    4.8750 h1        1 N68      0.005700
     26 H62         5.8920    1.0650    4.6190 h1        1 N68      0.005700
@<TRIPOS>BOND
     1    1    2 1   
     2    1   13 1   
     3    1   14 1   
     4    2    3 1   
     5    2   15 1   
     6    2   16 1   
     7    3    4 1   
     8    3   17 1   
     9    3   18 1   
    10    4    5 1   
    11    4   19 1   
    12    4   20 1   
    13    5    6 1   
    14    5   21 1   
    15    5   22 1   
    16    6    7 1   
    17    6   23 1   
    18    6   24 1   
    19    7    8 1   
    20    7   25 1   
    21    7   26 1   
    22    8    9 1   
    23    9   10 1   
    24    9   11 1   
    25    9   12 1   
@<TRIPOS>SUBSTRUCTURE
     1 N68         1 TEMP              0 ****  ****    0 ROOT
