@<TRIPOS>MOLECULE
N69
   44    46     1     0     0
SMALL
bcc


@<TRIPOS>ATOM
      1 N2           0.0000     0.0000     0.0000 nv         1 N69      -0.635500
      2 C2           1.3850     0.0000     0.0000 ca         1 N69       0.755900
      3 N1           2.0260     0.0000     1.1620 nb         1 N69      -0.740000
      4 N3           2.0240    -0.0010    -1.1580 nb         1 N69      -0.652000
      5 C4           3.3520    -0.0010    -1.1970 ca         1 N69       0.236800
      6 N9           4.2910    -0.0020    -2.1970 na         1 N69       0.184000
      7 C8           5.5200    -0.0030    -1.6060 cc         1 N69       0.189800
      8 C17          6.8350    -0.0040    -2.3420 c3         1 N69      -0.041000
      9 C19          7.2170    -1.4420    -2.6990 c3         1 N69      -0.001100
     10 C18          6.7030     0.8220    -3.6220 c3         1 N69      -0.001100
     11 C5           4.0720    -0.0020     0.0100 ca         1 N69      -0.204200
     12 N7           5.3900    -0.0070    -0.3110 nd         1 N69      -0.463100
     13 C6           3.3530    -0.0010     1.2150 ca         1 N69       0.711600
     14 O6           3.9970    -0.0010     2.4060 os         1 N69      -0.378100
     15 C10          2.9910    -0.0010     3.4200 c3         1 N69       0.184400
     16 C11          3.6560    -0.0010     4.7980 c3         1 N69      -0.062700
     17 C12          2.5830     0.1250     5.8820 c3         1 N69      -0.022400
     18 C13          3.2480     0.1240     7.2610 c3         1 N69      -0.022900
     19 C14          4.0170    -1.1840     7.4540 c3         1 N69      -0.025400
     20 C15          5.0910    -1.3090     6.3710 c3         1 N69      -0.022900
     21 C16          4.4250    -1.3100     4.9930 c3         1 N69      -0.022400
     22 H2N1        -0.5000     0.8670    -0.0140 hn         1 N69       0.278800
     23 H2N2        -0.5000    -0.8670    -0.0140 hn         1 N69       0.278800
     24 H9           4.1090     0.1090    -3.1750 hn         1 N69       0.136700
     25 H17          7.6030     0.4270    -1.7110 hc         1 N69       0.052700
     26 H191         8.1590    -1.4420    -3.2340 hc         1 N69       0.008200
     27 H192         7.3170    -2.0250    -1.7920 hc         1 N69       0.008200
     28 H193         6.4460    -1.8750    -3.3250 hc         1 N69       0.008200
     29 H181         6.1100     0.2750    -4.3450 hc         1 N69       0.008200
     30 H182         6.2170     1.7640    -3.3950 hc         1 N69       0.008200
     31 H183         7.6870     1.0130    -4.0320 hc         1 N69       0.008200
     32 H101         2.3730    -0.8850     3.3170 h1         1 N69       0.022700
     33 H102         2.3740     0.8840     3.3170 h1         1 N69       0.022700
     34 H11          4.3420     0.8340     4.8730 hc         1 N69       0.038700
     35 H121         2.0400     1.0530     5.7440 hc         1 N69       0.018450
     36 H122         1.9000    -0.7130     5.8110 hc         1 N69       0.018450
     37 H131         3.9340     0.9590     7.3290 hc         1 N69       0.013200
     38 H132         2.4870     0.2110     8.0270 hc         1 N69       0.013200
     39 H141         4.4890    -1.1830     8.4290 hc         1 N69       0.012200
     40 H142         3.3320    -2.0190     7.3800 hc         1 N69       0.012200
     41 H151         5.7730    -0.4710     6.4410 hc         1 N69       0.013200
     42 H152         5.6340    -2.2360     6.5080 hc         1 N69       0.013200
     43 H161         5.1850    -1.3980     4.2260 hc         1 N69       0.018450
     44 H162         3.7380    -2.1450     4.9250 hc         1 N69       0.018450
@<TRIPOS>BOND
     1     1     2 1   
     2     1    22 1   
     3     1    23 1   
     4     2     3 ar  
     5     2     4 ar  
     6     3    13 ar  
     7     4     5 ar  
     8     5     6 1   
     9     5    11 ar  
    10     6     7 1   
    11     6    24 1   
    12     7     8 1   
    13     7    12 2   
    14     8     9 1   
    15     8    10 1   
    16     8    25 1   
    17     9    26 1   
    18     9    27 1   
    19     9    28 1   
    20    10    29 1   
    21    10    30 1   
    22    10    31 1   
    23    11    12 1   
    24    11    13 ar  
    25    13    14 1   
    26    14    15 1   
    27    15    16 1   
    28    15    32 1   
    29    15    33 1   
    30    16    17 1   
    31    16    21 1   
    32    16    34 1   
    33    17    18 1   
    34    17    35 1   
    35    17    36 1   
    36    18    19 1   
    37    18    37 1   
    38    18    38 1   
    39    19    20 1   
    40    19    39 1   
    41    19    40 1   
    42    20    21 1   
    43    20    41 1   
    44    20    42 1   
    45    21    43 1   
    46    21    44 1   
@<TRIPOS>SUBSTRUCTURE
     1 N69         1 TEMP              0 ****  ****    0 ROOT
