@<TRIPOS>MOLECULE
molecule
   46    48     1     0     0
SMALL
bcc


@<TRIPOS>ATOM
      1 CAW          0.0000     0.0000     0.0000 ca         1 N6A      -0.117500
      2 CAX          1.3820     0.0000     0.0000 ca         1 N6A      -0.108000
      3 CBA          2.0730     0.0000     1.1980 ca         1 N6A      -0.092000
      4 CAZ          1.3830     0.0020     2.3940 ca         1 N6A      -0.108000
      5 CAY          0.0010     0.0030     2.3950 ca         1 N6A      -0.117500
      6 CAV         -0.6910     0.0010     1.1980 ca         1 N6A      -0.155300
      7 CAU         -2.1980     0.0020     1.1980 c3         1 N6A       0.150300
      8 NAN         -2.6870    -1.3790     1.1990 n          1 N6A      -0.368000
      9 CAO         -2.9160    -2.0240     2.3940 cc         1 N6A       0.039600
     10 NAP         -2.6870    -1.3770     3.5870 nz         1 N6A      -0.670400
     11 CAM         -2.9160    -2.0090     0.0320 c          1 N6A       0.821500
     12 OAL         -2.7140    -1.4220    -1.0140 o          1 N6A      -0.591500
     13 NAD         -3.3660    -3.2770     0.0040 ns         1 N6A      -0.538500
     14 CAE         -3.5970    -3.9480     1.1490 c          1 N6A       0.708700
     15 OAA         -4.0040    -5.0970     1.1150 o          1 N6A      -0.552500
     16 CAF         -3.3730    -3.3140     2.3840 cd         1 N6A       0.083800
     17 NAG         -3.6150    -3.9980     3.5970 nh         1 N6A      -0.682300
     18 CAB         -2.6050    -3.9890     4.6580 c3         1 N6A       0.197100
     19 SAH         -5.0410    -4.8110     3.8190 sy         1 N6A       1.401200
     20 OAQ         -5.4810    -4.4990     5.1330 o          1 N6A      -0.603800
     21 OAC         -5.8250    -4.5670     2.6590 o          1 N6A      -0.603800
     22 CAI         -4.6660    -6.5320     3.8140 ca         1 N6A      -0.319500
     23 CAJ         -4.3550    -7.1740     4.9980 ca         1 N6A      -0.023500
     24 CAK         -4.0600    -8.5250     4.9950 ca         1 N6A      -0.146000
     25 CAT         -4.0790    -9.2330     3.8090 ca         1 N6A      -0.054000
     26 CAS         -4.3920    -8.5920     2.6250 ca         1 N6A      -0.146000
     27 CAR         -4.6900    -7.2420     2.6290 ca         1 N6A      -0.023500
     28 HAW         -0.5410     0.0450    -0.9370 ha         1 N6A       0.121500
     29 HAX          1.9230    -0.0010    -0.9380 ha         1 N6A       0.151500
     30 HBA          3.1560    -0.0010     1.1980 ha         1 N6A       0.155000
     31 HAZ          1.9250     0.0130     3.3320 ha         1 N6A       0.151500
     32 HAY         -0.5400     0.0650     3.3320 ha         1 N6A       0.121500
     33 HAU1        -2.5580     0.5140     2.0830 h1         1 N6A       0.081700
     34 HAU2        -2.5590     0.5120     0.3140 h1         1 N6A       0.081700
     35 HAP1        -1.7290    -1.4930     3.8510 hn         1 N6A       0.473467
     36 HAP2        -3.2780    -1.7640     4.2950 hn         1 N6A       0.473467
     37 HAD         -3.5290    -3.7250    -0.8760 hn         1 N6A       0.398500
     38 HAB1        -2.8840    -3.2670     5.4160 h1         1 N6A       0.058367
     39 HAB2        -2.5410    -4.9740     5.1040 h1         1 N6A       0.058367
     40 HAB3        -1.6430    -3.7190     4.2390 h1         1 N6A       0.058367
     41 HAJ         -4.3400    -6.6190     5.9280 ha         1 N6A       0.159000
     42 HAR         -4.9350    -6.7400     1.7020 ha         1 N6A       0.159000
     43 HAK         -3.8160    -9.0280     5.9230 ha         1 N6A       0.149000
     44 HAT         -3.8470   -10.2920     3.8060 ha         1 N6A       0.147000
     45 HAS         -4.4090    -9.1470     1.6960 ha         1 N6A       0.149000
     46 HAP3        -2.8910    -0.4030     3.4830 hn         1 N6A       0.473467
@<TRIPOS>BOND
     1     1     2 ar
     2     1     6 ar
     3     2     3 ar
     4     3     4 ar
     5     4     5 ar
     6     5     6 ar
     7     6     7 1
     8     7     8 1
     9     8     9 1
    10     8    11 1
    11     9    10 1
    12     9    16 2
    13    11    12 2
    14    11    13 1
    15    13    14 1
    16    14    15 2
    17    14    16 1
    18    16    17 1
    19    17    18 1
    20    17    19 1
    21    19    20 2
    22    19    21 2
    23    19    22 1
    24    22    23 ar
    25    22    27 ar
    26    23    24 ar
    27    24    25 ar
    28    25    26 ar
    29    26    27 ar
    30     1    28 1
    31     2    29 1
    32     3    30 1
    33     4    31 1
    34     5    32 1
    35     7    33 1
    36     7    34 1
    37    10    35 1
    38    10    36 1
    39    13    37 1
    40    18    38 1
    41    18    39 1
    42    18    40 1
    43    23    41 1
    44    27    42 1
    45    24    43 1
    46    25    44 1
    47    26    45 1
    48    46    10 1
@<TRIPOS>SUBSTRUCTURE
     1 N6A         1 TEMP              0 ****  ****    0 ROOT
