@<TRIPOS>MOLECULE
N6A
   46    48     1     0     0
SMALL
bcc


@<TRIPOS>ATOM
      1 CAW          0.0000     0.0000     0.0000 ca         1 N6A      -0.091000
      2 CAX          1.3820     0.0000     0.0000 ca         1 N6A      -0.076500
      3 CBA          2.0730     0.0000     1.1980 ca         1 N6A      -0.061000
      4 CAZ          1.3830     0.0020     2.3940 ca         1 N6A      -0.076500
      5 CAY          0.0010     0.0030     2.3950 ca         1 N6A      -0.091000
      6 CAV         -0.6910     0.0010     1.1980 ca         1 N6A      -0.171300
      7 CAU         -2.1980     0.0020     1.1980 c3         1 N6A       0.089300
      8 NAN         -2.6870    -1.3790     1.1990 n          1 N6A       0.051000
      9 CAO         -2.9160    -2.0240     2.3940 cc         1 N6A      -0.372400
     10 NAP         -2.6870    -1.3770     3.5870 nz         1 N6A       0.239600
     11 CAM         -2.9160    -2.0090     0.0320 c          1 N6A       0.594500
     12 OAL         -2.7140    -1.4220    -1.0140 o          1 N6A      -0.641500
     13 NAD         -3.3660    -3.2770     0.0040 ns         1 N6A      -0.088500
     14 CAE         -3.5970    -3.9480     1.1490 c          1 N6A       0.599700
     15 OAA         -4.0040    -5.0970     1.1150 o          1 N6A      -0.590500
     16 CAF         -3.3730    -3.3140     2.3840 cd         1 N6A       0.070800
     17 NAG         -3.6150    -3.9980     3.5970 nh         1 N6A      -0.384300
     18 CAB         -2.6050    -3.9890     4.6580 c3         1 N6A       0.242100
     19 SAH         -5.0410    -4.8110     3.8190 sy         1 N6A       1.044200
     20 OAQ         -5.4810    -4.4990     5.1330 o          1 N6A      -0.552300
     21 OAC         -5.8250    -4.5670     2.6590 o          1 N6A      -0.552300
     22 CAI         -4.6660    -6.5320     3.8140 ca         1 N6A      -0.167500
     23 CAJ         -4.3550    -7.1740     4.9980 ca         1 N6A       0.003000
     24 CAK         -4.0600    -8.5250     4.9950 ca         1 N6A      -0.124000
     25 CAT         -4.0790    -9.2330     3.8090 ca         1 N6A      -0.022000
     26 CAS         -4.3920    -8.5920     2.6250 ca         1 N6A      -0.124000
     27 CAR         -4.6900    -7.2420     2.6290 ca         1 N6A       0.003000
     28 HAW         -0.5410     0.0450    -0.9370 ha         1 N6A       0.099000
     29 HAX          1.9230    -0.0010    -0.9380 ha         1 N6A       0.119000
     30 HBA          3.1560    -0.0010     1.1980 ha         1 N6A       0.121000
     31 HAZ          1.9250     0.0130     3.3320 ha         1 N6A       0.119000
     32 HAY         -0.5400     0.0650     3.3320 ha         1 N6A       0.099000
     33 HAU1        -2.5580     0.5140     2.0830 h1         1 N6A       0.050700
     34 HAU2        -2.5590     0.5120     0.3140 h1         1 N6A       0.050700
     35 HAP1        -1.7290    -1.4930     3.8510 hn         1 N6A       0.229800
     36 HAP2        -3.2780    -1.7640     4.2950 hn         1 N6A       0.229800
     37 HAD         -3.5290    -3.7250    -0.8760 hn         1 N6A       0.230500
     38 HAB1        -2.8840    -3.2670     5.4160 h1         1 N6A       0.017367
     39 HAB2        -2.5410    -4.9740     5.1040 h1         1 N6A       0.017367
     40 HAB3        -1.6430    -3.7190     4.2390 h1         1 N6A       0.017367
     41 HAJ         -4.3400    -6.6190     5.9280 ha         1 N6A       0.134000
     42 HAR         -4.9350    -6.7400     1.7020 ha         1 N6A       0.134000
     43 HAK         -3.8160    -9.0280     5.9230 ha         1 N6A       0.119000
     44 HAT         -3.8470   -10.2920     3.8060 ha         1 N6A       0.112000
     45 HAS         -4.4090    -9.1470     1.6960 ha         1 N6A       0.119000
     46 HAP3        -2.8910    -0.4030     3.4830 hn         1 N6A       0.229800
@<TRIPOS>BOND
     1     1     2 ar  
     2     1     6 ar  
     3     1    28 1   
     4     2     3 ar  
     5     2    29 1   
     6     3     4 ar  
     7     3    30 1   
     8     4     5 ar  
     9     4    31 1   
    10     5     6 ar  
    11     5    32 1   
    12     6     7 1   
    13     7     8 1   
    14     7    33 1   
    15     7    34 1   
    16     8     9 1   
    17     8    11 1   
    18     9    10 1   
    19     9    16 2   
    20    10    35 1   
    21    10    36 1   
    22    10    46 1   
    23    11    12 2   
    24    11    13 1   
    25    13    14 1   
    26    13    37 1   
    27    14    15 2   
    28    14    16 1   
    29    16    17 1   
    30    17    18 1   
    31    17    19 1   
    32    18    38 1   
    33    18    39 1   
    34    18    40 1   
    35    19    20 2   
    36    19    21 2   
    37    19    22 1   
    38    22    23 ar  
    39    22    27 ar  
    40    23    24 ar  
    41    23    41 1   
    42    24    25 ar  
    43    24    43 1   
    44    25    26 ar  
    45    25    44 1   
    46    26    27 ar  
    47    26    45 1   
    48    27    42 1   
@<TRIPOS>SUBSTRUCTURE
     1 N6A         1 TEMP              0 ****  ****    0 ROOT
