@<TRIPOS>MOLECULE
N6C
   22    21     1     0     0
SMALL
bcc


@<TRIPOS>ATOM
      1 O1           0.0000     0.0000     0.0000 o          1 N6C      -0.441500
      2 N1           1.2170     0.0000     0.0000 no         1 N6C       0.951300
      3 O2           1.8260     0.0000     1.0560 o          1 N6C      -0.441500
      4 C1           1.9500    -0.0060    -1.2690 c3         1 N6C      -0.286700
      5 C2           1.3220     1.0100    -2.2240 c3         1 N6C      -0.021400
      6 C3           2.0880     1.0040    -3.5500 c3         1 N6C      -0.025400
      7 C4           1.4590     2.0190    -4.5060 c3         1 N6C      -0.027400
      8 C5           2.2250     2.0140    -5.8300 c3         1 N6C      -0.027400
      9 C6           1.5970     3.0290    -6.7870 c3         1 N6C       0.006900
     10 H1           1.9020    -0.9940    -1.7100 h1         1 N6C       0.069700
     11 H1A          2.9850     0.2590    -1.0890 h1         1 N6C       0.069700
     12 H2           1.3710     1.9990    -1.7840 hc         1 N6C       0.035700
     13 H2A          0.2870     0.7460    -2.4040 hc         1 N6C       0.035700
     14 H3           2.0390     0.0150    -3.9900 hc         1 N6C       0.017200
     15 H3A          3.1230     1.2690    -3.3700 hc         1 N6C       0.017200
     16 H4           0.4250     1.7540    -4.6860 hc         1 N6C       0.018700
     17 H4A          1.5070     3.0080    -4.0660 hc         1 N6C       0.018700
     18 H5           2.1770     1.0250    -6.2710 hc         1 N6C       0.012700
     19 H5A          3.2600     2.2790    -5.6500 hc         1 N6C       0.012700
     20 H6           2.1390     3.0250    -7.7250 hc         1 N6C       0.001700
     21 H6A          0.5620     2.7640    -6.9670 hc         1 N6C       0.001700
     22 H6B          1.6450     4.0180    -6.3470 hc         1 N6C       0.001700
@<TRIPOS>BOND
     1     1     2 1   
     2     2     3 1   
     3     2     4 1   
     4     4     5 1   
     5     4    10 1   
     6     4    11 1   
     7     5     6 1   
     8     5    12 1   
     9     5    13 1   
    10     6     7 1   
    11     6    14 1   
    12     6    15 1   
    13     7     8 1   
    14     7    16 1   
    15     7    17 1   
    16     8     9 1   
    17     8    18 1   
    18     8    19 1   
    19     9    20 1   
    20     9    21 1   
    21     9    22 1   
@<TRIPOS>SUBSTRUCTURE
     1 N6C         1 TEMP              0 ****  ****    0 ROOT
