@<TRIPOS>MOLECULE
N6M
   18    19     1     0     0
SMALL
bcc


@<TRIPOS>ATOM
      1 C6           0.0000     0.0000     0.0000 ca         1 N6M       0.605200
      2 C5           1.4050     0.0000     0.0000 ca         1 N6M      -0.244200
      3 C4           2.0680     0.0000     1.2390 ca         1 N6M       0.250800
      4 C2           0.0340    -0.0070     2.3070 ca         1 N6M       0.693900
      5 C8           3.5360     0.0000    -0.4070 cc         1 N6M       0.216700
      6 C11         -2.1720    -0.0070    -1.1700 c3         1 N6M       0.194100
      7 N6          -0.7070    -0.0010    -1.1900 nu         1 N6M      -0.467900
      8 N1          -0.6330    -0.0060     1.1680 nb         1 N6M      -0.744000
      9 N3           1.3490    -0.0010     2.3570 nb         1 N6M      -0.685000
     10 N9           3.4090     0.0000     0.9500 na         1 N6M       0.177000
     11 N7           2.3590     0.0000    -0.9620 nd         1 N6M      -0.490100
     12 H9           4.1580     0.0000     1.6150 hn         1 N6M       0.132700
     13 H8           4.4760     0.0010    -0.9440 h5         1 N6M       0.030800
     14 H6          -0.2180     0.0310    -2.0620 hn         1 N6M       0.305800
     15 H111        -2.5300     0.8760    -0.6560 h1         1 N6M       0.011033
     16 H112        -2.5230    -0.8930    -0.6540 h1         1 N6M       0.011033
     17 H113        -2.5460    -0.0090    -2.1870 h1         1 N6M       0.011033
     18 H2          -0.5230    -0.0120     3.2370 h5         1 N6M      -0.005900
@<TRIPOS>BOND
     1     1     2 ar  
     2     1     7 1   
     3     1     8 ar  
     4     2     3 ar  
     5     2    11 1   
     6     3     9 ar  
     7     3    10 1   
     8     4     8 ar  
     9     4     9 ar  
    10     4    18 1   
    11     5    10 1   
    12     5    11 2   
    13     5    13 1   
    14     6     7 1   
    15     6    15 1   
    16     6    16 1   
    17     6    17 1   
    18     7    14 1   
    19    10    12 1   
@<TRIPOS>SUBSTRUCTURE
     1 N6M         1 TEMP              0 ****  ****    0 ROOT
