@<TRIPOS>MOLECULE
N6P
   49    53     1     0     0
SMALL
bcc


@<TRIPOS>ATOM
      1 C1         -0.0420    0.1500   -0.0880 ca        1 N6P     -0.093000
      2 C2          1.3730    0.2520   -0.1680 ca        1 N6P     -0.047000
      3 C3          2.1760    0.3870    0.9980 ca        1 N6P     -0.109000
      4 C4          3.5420    0.4850    0.8970 ca        1 N6P     -0.148000
      5 C5          4.1690    0.4530   -0.3720 ca        1 N6P     -0.141000
      6 C6          3.4170    0.3240   -1.5140 ca        1 N6P     -0.116000
      7 C7          2.0010    0.2190   -1.4390 ca        1 N6P     -0.030000
      8 C8          1.1960    0.0830   -2.6010 ca        1 N6P     -0.139000
      9 C9         -0.1700   -0.0140   -2.5030 ca        1 N6P     -0.074000
     10 C10        -0.8050    0.0230   -1.2310 cp        1 N6P     -0.116500
     11 C11        -2.2730   -0.0770   -1.1470 cp        1 N6P      0.510800
     12 N1         -2.8270   -0.8400   -0.1710 nb        1 N6P     -0.731000
     13 C12        -4.1860   -0.9100   -0.1150 ca        1 N6P      0.607900
     14 N2         -5.1130   -0.3140   -0.9030 nb        1 N6P     -0.675000
     15 C13        -4.5660    0.4570   -1.8820 ca        1 N6P      0.416800
     16 C14        -3.1020    0.6120   -2.0610 ca        1 N6P     -0.132200
     17 N3         -2.8610    1.4600   -3.1480 nc        1 N6P     -0.592100
     18 C15        -4.0790    1.8040   -3.6110 cd        1 N6P      0.478700
     19 N4         -5.1490    1.2470   -2.8800 na        1 N6P     -0.259000
     20 C16        -6.5770    1.3600   -3.1730 c3        1 N6P      0.215800
     21 O1         -6.8000    1.1210   -4.5500 os        1 N6P     -0.431600
     22 C17        -7.1700    2.7670   -2.8210 c3        1 N6P      0.102100
     23 O2         -8.3550    2.5650   -2.0810 oh        1 N6P     -0.615800
     24 C18        -7.3580    3.4510   -4.1920 c3        1 N6P      0.127100
     25 O3         -8.6500    4.0080   -4.2520 oh        1 N6P     -0.681800
     26 C19        -7.1890    2.3360   -5.2420 c3        1 N6P      0.049100
     27 C20        -6.1580    2.6740   -6.3470 c3        1 N6P      0.228400
     28 O4         -6.7780    3.2320   -7.4280 os        1 N6P     -0.552200
     29 P1         -6.5950    4.9690   -7.5190 p5        1 N6P      1.333900
     30 O5         -7.3390    5.3110   -6.2410 o         1 N6P     -0.928500
     31 O6         -5.1050    5.1060   -7.4010 o         1 N6P     -0.928500
     32 O7         -7.2560    5.3310   -8.8100 o         1 N6P     -0.928500
     33 H1         -0.5160    0.1770    0.9060 ha        1 N6P      0.143000
     34 H2          1.6790    0.4140    1.9780 ha        1 N6P      0.127000
     35 H3          4.1650    0.5910    1.7970 ha        1 N6P      0.118000
     36 H4          5.2640    0.5370   -0.4280 ha        1 N6P      0.118000
     37 H5          3.8940    0.3030   -2.5050 ha        1 N6P      0.127000
     38 H6          1.6870    0.0640   -3.5850 ha        1 N6P      0.132000
     39 H7         -0.7880   -0.1140   -3.4110 ha        1 N6P      0.166000
     40 H8         -4.5940   -1.5490    0.6940 h5        1 N6P      0.034100
     41 H9         -4.2770    2.4530   -4.4890 h5        1 N6P      0.130800
     42 H10        -7.1040    0.5400   -2.6030 h2        1 N6P      0.093700
     43 H11        -6.4940    3.3590   -2.1510 h1        1 N6P      0.066700
     44 H12        -9.1030    2.6880   -2.6820 ho        1 N6P      0.432000
     45 H13        -6.5900    4.2620   -4.3400 h1        1 N6P      0.120700
     46 H14        -8.6190    4.6510   -5.0030 ho        1 N6P      0.516000
     47 H15        -8.1770    2.0950   -5.7200 h1        1 N6P      0.081700
     48 H16        -5.3680    3.3670   -5.9340 h1        1 N6P     -0.002800
     49 H17        -5.6700    1.6980   -6.6440 h1        1 N6P     -0.002800
@<TRIPOS>BOND
     1    1    2 ar  
     2    1   10 ar  
     3    1   33 1   
     4    2    3 ar  
     5    2    7 ar  
     6    3    4 ar  
     7    3   34 1   
     8    4    5 ar  
     9    4   35 1   
    10    5    6 ar  
    11    5   36 1   
    12    6    7 ar  
    13    6   37 1   
    14    7    8 ar  
    15    8    9 ar  
    16    8   38 1   
    17    9   10 ar  
    18    9   39 1   
    19   10   11 1   
    20   11   12 ar  
    21   11   16 ar  
    22   12   13 ar  
    23   13   14 ar  
    24   13   40 1   
    25   14   15 ar  
    26   15   16 ar  
    27   15   19 1   
    28   16   17 1   
    29   17   18 2   
    30   18   19 1   
    31   18   41 1   
    32   19   20 1   
    33   20   21 1   
    34   20   22 1   
    35   20   42 1   
    36   21   26 1   
    37   22   23 1   
    38   22   24 1   
    39   22   43 1   
    40   23   44 1   
    41   24   25 1   
    42   24   26 1   
    43   24   45 1   
    44   25   46 1   
    45   26   27 1   
    46   26   47 1   
    47   27   28 1   
    48   27   48 1   
    49   27   49 1   
    50   28   29 1   
    51   29   30 1   
    52   29   31 1   
    53   29   32 1   
@<TRIPOS>SUBSTRUCTURE
     1 N6P         1 TEMP              0 ****  ****    0 ROOT
