@<TRIPOS>MOLECULE
molecule
   49    53     1     0     0
SMALL
bcc


@<TRIPOS>ATOM
      1 C1           0.0000     0.0000     0.0000 ca         1 N6P      -0.085000
      2 C2           1.4040     0.0000     0.0000 ca         1 N6P      -0.050000
      3 C3           2.1300     0.0000     1.2030 ca         1 N6P      -0.110000
      4 C4           3.4920    -0.0010     1.1680 ca         1 N6P      -0.143000
      5 C5           4.1770    -0.0000    -0.0450 ca         1 N6P      -0.137000
      6 C6           3.5060    -0.0010    -1.2300 ca         1 N6P      -0.115000
      7 C7           2.1010    -0.0010    -1.2340 ca         1 N6P      -0.025000
      8 C8           1.3800    -0.0010    -2.4430 ca         1 N6P      -0.152000
      9 C9           0.0210    -0.0010    -2.4220 ca         1 N6P      -0.065000
     10 C10         -0.6810    -0.0070    -1.2040 cp         1 N6P      -0.110500
     11 C11         -2.1610    -0.0070    -1.2110 cp         1 N6P       0.541800
     12 N1          -2.8470    -0.6680    -0.2810 nb         1 N6P      -0.762000
     13 C12         -4.1660    -0.6730    -0.2800 ca         1 N6P       0.662900
     14 N2          -4.8780    -0.0340    -1.1850 nb         1 N6P      -0.719000
     15 C13         -4.2840     0.6530    -2.1530 ca         1 N6P       0.439800
     16 C14         -2.8770     0.6950    -2.1970 ca         1 N6P      -0.128200
     17 N3          -2.5350     1.4520    -3.2650 nc         1 N6P      -0.623100
     18 C15         -3.6130     1.8660    -3.8670 cd         1 N6P       0.493700
     19 N4          -4.7180     1.4040    -3.2160 na         1 N6P      -0.239000
     20 C16         -6.1130     1.6560    -3.5880 c3         1 N6P       0.245800
     21 O1          -6.2020     2.0810    -4.9650 os         1 N6P      -0.373600
     22 C17         -6.6780     2.8640    -2.8000 c3         1 N6P       0.082100
     23 O2          -7.1940     2.4500    -1.5340 oh         1 N6P      -0.577800
     24 C18         -7.8160     3.3530    -3.7270 c3         1 N6P       0.082100
     25 O3          -9.0760     2.8390    -3.2870 oh         1 N6P      -0.589800
     26 C19         -7.4510     2.7770    -5.1090 c3         1 N6P       0.114100
     27 C20         -7.3000     3.9140    -6.1230 c3         1 N6P       0.222400
     28 O4          -7.0610     3.3650    -7.4200 os         1 N6P      -0.560200
     29 P1          -6.8520     4.2750    -8.7320 p5         1 N6P       1.166900
     30 O5          -8.2130     5.0760    -9.0510 o          1 N6P      -0.902500
     31 O6          -5.7560     5.2400    -8.4940 o          1 N6P      -0.902500
     32 O7          -6.4780     3.3350    -9.9830 o          1 N6P      -0.902500
     33 H1          -0.4740     0.0780     0.9710 ha         1 N6P       0.144000
     34 H2           1.6100    -0.0010     2.1540 ha         1 N6P       0.127000
     35 H3           4.0500    -0.0000     2.0970 ha         1 N6P       0.116000
     36 H4           5.2600    -0.0010    -0.0450 ha         1 N6P       0.117000
     37 H5           4.0530    -0.0000    -2.1650 ha         1 N6P       0.129000
     38 H6           1.8130     0.0440    -3.4350 ha         1 N6P       0.138000
     39 H7          -0.2880    -0.3720    -3.3920 ha         1 N6P       0.153000
     40 H8          -4.6850    -1.2240     0.4960 h5         1 N6P       0.050100
     41 H9          -3.6290     2.4860    -4.7550 h5         1 N6P       0.125800
     42 H10         -6.7230     0.7760    -3.4230 h2         1 N6P       0.099700
     43 H11         -5.9230     3.6320    -2.6830 h1         1 N6P       0.053700
     44 H12         -7.0850     3.1450    -0.9070 ho         1 N6P       0.390000
     45 H13         -7.8340     4.4360    -3.7630 h1         1 N6P       0.056700
     46 H14         -9.6850     3.5500    -3.1800 ho         1 N6P       0.394000
     47 H15         -8.2200     2.0870    -5.4330 h1         1 N6P       0.081700
     48 H16         -6.4660     4.5440    -5.8380 h1         1 N6P       0.021700
     49 H17         -8.2090     4.5040    -6.1420 h1         1 N6P       0.021700
@<TRIPOS>BOND
     1    31    29 1
     2    29    32 1
     3    29    30 1
     4    29    28 1
     5    28    27 1
     6    21    26 1
     7    21    20 1
     8    27    26 1
     9    18    17 2
    10    18    19 1
    11    17    16 1
    12     8     9 ar
    13     8     7 ar
    14    26    24 1
    15     9    10 ar
    16    19    20 1
    17    19    15 1
    18     6     7 ar
    19     6     5 ar
    20    20    22 1
    21     7     2 ar
    22    16    15 ar
    23    16    11 ar
    24    10    11 1
    25    10     1 ar
    26    15    14 ar
    27     5     4 ar
    28    24    22 1
    29    24    25 1
    30    11    12 ar
    31    22    23 1
    32     2     1 ar
    33     2     3 ar
    34    14    13 ar
    35     4     3 ar
    36    12    13 ar
    37     1    33 1
    38     3    34 1
    39     4    35 1
    40     5    36 1
    41     6    37 1
    42     8    38 1
    43     9    39 1
    44    13    40 1
    45    18    41 1
    46    20    42 1
    47    22    43 1
    48    23    44 1
    49    24    45 1
    50    25    46 1
    51    26    47 1
    52    27    48 1
    53    27    49 1
@<TRIPOS>SUBSTRUCTURE
     1 N6P         1 TEMP              0 ****  ****    0 ROOT
