@<TRIPOS>MOLECULE
N6R
   53    57     1     0     0
SMALL
bcc


@<TRIPOS>ATOM
      1 C5H          0.0000     0.0000     0.0000 ca         1 N6R      -0.096000
      2 C5F          1.3820     0.0000     0.0000 ca         1 N6R      -0.095500
      3 C5E          2.0740     0.0000     1.1970 ca         1 N6R      -0.102000
      4 C5G          1.3820    -0.0010     2.3940 ca         1 N6R      -0.095500
      5 C5I         -0.0000    -0.0010     2.3940 ca         1 N6R      -0.096000
      6 C5U         -0.6910     0.0060     1.1970 ca         1 N6R      -0.098300
      7 C5M         -2.1980     0.0060     1.1960 c3         1 N6R       0.020900
      8 C5Y         -2.7080     1.4470     1.2040 c3         1 N6R       0.126500
      9 C5A         -4.2330     1.4510     1.0770 c3         1 N6R      -0.017100
     10 N6          -2.3210     2.0970     2.4590 nu         1 N6R      -0.459900
     11 C6          -2.1910     3.4730     2.5150 ca         1 N6R       0.611200
     12 N1          -2.4130     4.2220     1.4410 nb         1 N6R      -0.746000
     13 C2          -2.2910     5.5360     1.4850 ca         1 N6R       0.695900
     14 N3          -1.9460     6.1770     2.5820 nb         1 N6R      -0.688000
     15 C4          -1.7030     5.5120     3.7070 ca         1 N6R       0.278800
     16 C5          -1.8250     4.1120     3.7130 ca         1 N6R      -0.244200
     17 N7          -1.5350     3.6920     4.9670 nc         1 N6R      -0.486100
     18 C8          -1.2550     4.7200     5.7150 cd         1 N6R       0.238700
     19 N9          -1.3360     5.8650     4.9800 na         1 N6R       0.174000
     20 C1S         -1.0920     7.2250     5.4670 c3         1 N6R       0.155800
     21 O4S         -0.2230     7.1870     6.6250 os         1 N6R      -0.365600
     22 C4S         -1.0940     7.1430     7.7520 c3         1 N6R       0.043100
     23 C5S         -0.4850     7.4930     9.0950 c3         1 N6R       0.285400
     24 O5S         -1.5240     7.3080    10.0860 os         1 N6R      -0.447200
     25 P5          -2.9910     7.9670     9.8650 p5         1 N6R       1.216500
     26 O5D         -4.0140     7.1780    10.5850 o          1 N6R      -0.602300
     27 O5B         -2.9970     9.4880    10.3940 oh         1 N6R      -0.649400
     28 O3S         -3.2880     7.9320     8.2600 os         1 N6R      -0.431200
     29 C3S         -2.1780     8.1960     7.3970 c3         1 N6R       0.167100
     30 C2S         -2.4270     7.8710     5.9180 c3         1 N6R       0.143100
     31 O2S         -2.6860     9.0640     5.1760 oh         1 N6R      -0.567800
     32 H5H         -0.5420     0.0030    -0.9380 ha         1 N6R       0.106000
     33 H5F          1.9240    -0.0020    -0.9380 ha         1 N6R       0.103000
     34 H5E          3.1570     0.0000     1.1970 ha         1 N6R       0.102000
     35 H5G          1.9240    -0.0030     3.3330 ha         1 N6R       0.103000
     36 H5I         -0.5420     0.0020     3.3330 ha         1 N6R       0.106000
     37 H5M         -2.5590    -0.5100     2.0780 hc         1 N6R       0.026700
     38 H5MA        -2.5590    -0.5000     0.3090 hc         1 N6R       0.026700
     39 H5Y         -2.2760     1.9870     0.3700 h1         1 N6R       0.062700
     40 H5A         -4.5290     0.7940     0.2680 hc         1 N6R       0.011700
     41 H5AA        -4.6730     1.1030     2.0040 hc         1 N6R       0.011700
     42 H5AB        -4.5760     2.4570     0.8700 hc         1 N6R       0.011700
     43 HN6         -2.2040     1.5490     3.2890 hn         1 N6R       0.309800
     44 H2          -2.4820     6.1080     0.5850 h5         1 N6R      -0.004900
     45 H8          -0.9950     4.6720     6.7660 h5         1 N6R       0.039800
     46 H1S         -0.6390     7.8260     4.6880 h2         1 N6R       0.085700
     47 H4S         -1.5530     6.1630     7.8120 h1         1 N6R       0.047700
     48 H5S          0.3490     6.8340     9.3060 h1         1 N6R       0.014700
     49 H5SA        -0.1560     8.5260     9.0930 h1         1 N6R       0.014700
     50 HO5B        -3.5310     9.5490    11.1690 ho         1 N6R       0.460000
     51 H3S         -1.8030     9.2040     7.5250 h1         1 N6R       0.044700
     52 H2S         -3.2430     7.1650     5.8170 h1         1 N6R       0.041700
     53 HO2S        -3.6170     9.1710     5.0680 ho         1 N6R       0.407000
@<TRIPOS>BOND
     1     1     2 ar  
     2     1     6 ar  
     3     1    32 1   
     4     2     3 ar  
     5     2    33 1   
     6     3     4 ar  
     7     3    34 1   
     8     4     5 ar  
     9     4    35 1   
    10     5     6 ar  
    11     5    36 1   
    12     6     7 1   
    13     7     8 1   
    14     7    37 1   
    15     7    38 1   
    16     8     9 1   
    17     8    10 1   
    18     8    39 1   
    19     9    40 1   
    20     9    41 1   
    21     9    42 1   
    22    10    11 1   
    23    10    43 1   
    24    11    12 ar  
    25    11    16 ar  
    26    12    13 ar  
    27    13    14 ar  
    28    13    44 1   
    29    14    15 ar  
    30    15    16 ar  
    31    15    19 1   
    32    16    17 1   
    33    17    18 2   
    34    18    19 1   
    35    18    45 1   
    36    19    20 1   
    37    20    21 1   
    38    20    30 1   
    39    20    46 1   
    40    21    22 1   
    41    22    23 1   
    42    22    29 1   
    43    22    47 1   
    44    23    24 1   
    45    23    48 1   
    46    23    49 1   
    47    24    25 1   
    48    25    26 2   
    49    25    27 1   
    50    25    28 1   
    51    27    50 1   
    52    28    29 1   
    53    29    30 1   
    54    29    51 1   
    55    30    31 1   
    56    30    52 1   
    57    31    53 1   
@<TRIPOS>SUBSTRUCTURE
     1 N6R         1 TEMP              0 ****  ****    0 ROOT
