@<TRIPOS>MOLECULE
N6S
   53    57     1     0     0
SMALL
bcc


@<TRIPOS>ATOM
      1 C5H          0.0000     0.0000     0.0000 ca         1 N6S      -0.096500
      2 C5F          1.3810     0.0000     0.0000 ca         1 N6S      -0.096000
      3 C5E          2.0730     0.0000     1.1970 ca         1 N6S      -0.102000
      4 C5G          1.3820     0.0010     2.3950 ca         1 N6S      -0.096000
      5 C5I         -0.0000     0.0010     2.3940 ca         1 N6S      -0.096500
      6 C5U         -0.6910    -0.0000     1.1970 ca         1 N6S      -0.098300
      7 C5M         -2.1980    -0.0000     1.1970 c3         1 N6S       0.019900
      8 C5Y         -2.7090    -1.4430     1.1970 c3         1 N6S       0.126500
      9 C5A         -4.2340    -1.4450     1.0710 c3         1 N6S      -0.017100
     10 N6          -2.3200    -2.0980     2.4490 nu         1 N6S      -0.459900
     11 C6          -2.1900    -3.4740     2.4980 ca         1 N6S       0.611200
     12 N1          -2.4120    -4.2180     1.4190 nb         1 N6S      -0.746000
     13 C2          -2.2910    -5.5320     1.4560 ca         1 N6S       0.696900
     14 N3          -1.9460    -6.1790     2.5500 nb         1 N6S      -0.688000
     15 C4          -1.7030    -5.5200     3.6790 ca         1 N6S       0.280800
     16 C5          -1.8130    -4.1190     3.6890 ca         1 N6S      -0.245200
     17 N7          -1.5170    -3.7050     4.9440 nc         1 N6S      -0.488100
     18 C8          -1.2390    -4.7360     5.6870 cd         1 N6S       0.239700
     19 N9          -1.3360    -5.8800     4.9510 na         1 N6S       0.173000
     20 C1S         -1.0940    -7.2430     5.4310 c3         1 N6S       0.154800
     21 O4S         -1.2520    -7.2950     6.8690 os         1 N6S      -0.363600
     22 C4S          0.0510    -7.0770     7.4030 c3         1 N6S       0.038100
     23 C5S          0.2700    -7.4860     8.8470 c3         1 N6S       0.305400
     24 O5S          1.6250    -7.1060     9.1860 os         1 N6S      -0.477200
     25 P5           2.8580    -7.5220     8.2170 p5         1 N6S       1.235500
     26 O5D          4.0670    -6.4710     8.3820 oh         1 N6S      -0.609400
     27 O5B          3.3230    -8.8870     8.5490 o          1 N6S      -0.645300
     28 O3S          2.2910    -7.4840     6.6870 os         1 N6S      -0.454200
     29 C3S          0.9500    -7.9670     6.5020 c3         1 N6S       0.189100
     30 C2S          0.3650    -7.6600     5.1170 c3         1 N6S       0.140100
     31 O2S          0.3890    -8.8270     4.2910 oh         1 N6S      -0.565800
     32 H5H         -0.5420    -0.0000    -0.9380 ha         1 N6S       0.106000
     33 H5F          1.9230    -0.0000    -0.9380 ha         1 N6S       0.103000
     34 H5E          3.1560    -0.0000     1.1970 ha         1 N6S       0.102000
     35 H5G          1.9240     0.0010     3.3330 ha         1 N6S       0.103000
     36 H5I         -0.5420     0.0010     3.3320 ha         1 N6S       0.106000
     37 H5M         -2.5590     0.5100     0.3120 hc         1 N6S       0.026700
     38 H5MA        -2.5600     0.5110     2.0810 hc         1 N6S       0.026700
     39 H5Y         -2.2770    -1.9790     0.3610 h1         1 N6S       0.062700
     40 H5A         -4.5300    -0.7860     0.2640 hc         1 N6S       0.012033
     41 H5AA        -4.5770    -2.4500     0.8610 hc         1 N6S       0.012033
     42 H5AB        -4.6730    -1.1000     1.9990 hc         1 N6S       0.012033
     43 HN6         -2.1990    -1.5550     3.2810 hn         1 N6S       0.309800
     44 H2          -2.4810    -6.0990     0.5530 h5         1 N6S      -0.004900
     45 H8          -0.9730    -4.6930     6.7370 h5         1 N6S       0.038800
     46 H1S         -1.7830    -7.9340     4.9600 h2         1 N6S       0.086700
     47 H4S          0.3260    -6.0370     7.2760 h1         1 N6S       0.038700
     48 H5S          0.1500    -8.5570     8.9500 h1         1 N6S       0.016700
     49 H5SA        -0.4310    -6.9650     9.4890 h1         1 N6S       0.016700
     50 HO5D         4.7400    -6.8490     8.9240 ho         1 N6S       0.458000
     51 H3S          0.8570    -9.0150     6.7570 h1         1 N6S       0.059700
     52 H2S          0.9020    -6.8430     4.6500 h1         1 N6S       0.038700
     53 HO2S         1.1050    -8.7660     3.6810 ho         1 N6S       0.406000
@<TRIPOS>BOND
     1     1     2 ar  
     2     1     6 ar  
     3     1    32 1   
     4     2     3 ar  
     5     2    33 1   
     6     3     4 ar  
     7     3    34 1   
     8     4     5 ar  
     9     4    35 1   
    10     5     6 ar  
    11     5    36 1   
    12     6     7 1   
    13     7     8 1   
    14     7    37 1   
    15     7    38 1   
    16     8     9 1   
    17     8    10 1   
    18     8    39 1   
    19     9    40 1   
    20     9    41 1   
    21     9    42 1   
    22    10    11 1   
    23    10    43 1   
    24    11    12 ar  
    25    11    16 ar  
    26    12    13 ar  
    27    13    14 ar  
    28    13    44 1   
    29    14    15 ar  
    30    15    16 ar  
    31    15    19 1   
    32    16    17 1   
    33    17    18 2   
    34    18    19 1   
    35    18    45 1   
    36    19    20 1   
    37    20    21 1   
    38    20    30 1   
    39    20    46 1   
    40    21    22 1   
    41    22    23 1   
    42    22    29 1   
    43    22    47 1   
    44    23    24 1   
    45    23    48 1   
    46    23    49 1   
    47    24    25 1   
    48    25    26 1   
    49    25    27 2   
    50    25    28 1   
    51    26    50 1   
    52    28    29 1   
    53    29    30 1   
    54    29    51 1   
    55    30    31 1   
    56    30    52 1   
    57    31    53 1   
@<TRIPOS>SUBSTRUCTURE
     1 N6S         1 TEMP              0 ****  ****    0 ROOT
