@<TRIPOS>MOLECULE
N6T
   46    46     1     0     0
SMALL
bcc


@<TRIPOS>ATOM
      1 O4          0.4240   -0.8330    0.8350 o         1 N6T     -0.396000
      2 C4          1.6450   -0.8070    0.5730 c2        1 N6T      0.360000
      3 C5          2.3630    0.2710   -0.1100 c2        1 N6T     -0.276000
      4 C7          1.5940    1.4540   -0.5410 c3        1 N6T     -0.146000
      5 C6          3.7110    0.1590   -0.3230 c2        1 N6T      0.079000
      6 N3          2.4180   -1.9150    0.9660 n         1 N6T     -0.376000
      7 C2          3.8040   -2.0070    0.7380 c2        1 N6T      0.392000
      8 O2          4.4110   -3.0340    1.1290 o         1 N6T     -0.413000
      9 N1          4.4410   -0.9520    0.0540 n         1 N6T     -0.263000
     10 C1'         5.9100   -0.9940   -0.1360 c3        1 N6T      0.154000
     11 C2'         6.3250   -1.1250   -1.6140 c3        1 N6T     -0.211000
     12 C3'         6.8460    0.2650   -2.0100 c3        1 N6T      0.042000
     13 O3'         8.0600    0.1000   -2.7030 oh        1 N6T     -0.380000
     14 O4'         6.4950    0.1890    0.3840 os        1 N6T     -0.290000
     15 C4'         7.0570    1.0100   -0.6750 c3        1 N6T     -0.058000
     16 C5'         6.4160    2.4140   -0.6200 c3        1 N6T      0.070000
     17 O5'         7.3100    3.3770   -1.0190 os        1 N6T     -0.734000
     18 PA          7.0300    3.9810   -2.6110 p5        1 N6T      2.085000
     19 O1A         5.6070    4.3970   -2.5040 o         1 N6T     -0.912000
     20 O2A         7.2860    2.7040   -3.3420 o         1 N6T     -0.912000
     21 C3A         8.1390    5.2130   -2.6380 c3        1 N6T     -1.476000
     22 PB          9.2560    6.0770   -3.9110 p5        1 N6T      2.042000
     23 O1B        10.5190    5.2870   -3.9110 o         1 N6T     -0.870000
     24 O2B         8.4790    6.2520   -5.1680 o         1 N6T     -0.870000
     25 N3B         9.4770    7.5020   -3.1700 n3        1 N6T     -0.990000
     26 PG         10.6570    9.8670   -3.0260 p3        1 N6T      2.435000
     27 O2G        11.5930   10.1590   -4.1300 o         1 N6T     -1.146333
     28 O1G        11.1890    9.3970   -1.7300 o         1 N6T     -1.146333
     29 O3G         9.2890   10.4240   -3.0710 o         1 N6T     -1.146333
     30 H1          0.8390    1.1620   -1.3130 hc        1 N6T      0.087667
     31 H2          1.0450    1.8920    0.3290 hc        1 N6T      0.087667
     32 H3          2.2680    2.2360   -0.9740 hc        1 N6T      0.087667
     33 H4          4.3040    0.9650   -0.8170 h4        1 N6T      0.222000
     34 H5          1.9890   -2.6710    1.4500 hn        1 N6T      0.241000
     35 H6          6.2890   -1.8480    0.4990 h2        1 N6T      0.129000
     36 H7          7.1460   -1.8810   -1.6930 hc        1 N6T      0.097000
     37 H8          5.4890   -1.4450   -2.2780 hc        1 N6T      0.097000
     38 H9          6.1060    0.8080   -2.6600 h1        1 N6T      0.138000
     39 H10         8.2310    0.9560   -3.1530 ho        1 N6T      0.298000
     40 H11         8.1530    1.0920   -0.4410 h1        1 N6T      0.129000
     41 H12         5.4920    2.4460   -1.2660 h1        1 N6T      0.046500
     42 H13         6.1200    2.6030    0.4530 h1        1 N6T      0.046500
     43 H15         7.6000    6.0910   -2.2150 hc        1 N6T      0.118500
     44 H16         8.9570    4.9290   -1.9340 hc        1 N6T      0.118500
     45 H18         8.7740    8.1990   -3.2090 hn        1 N6T      0.204000
     46 H3B2       10.0040    7.5480   -2.3310 hn        1 N6T      0.204000
@<TRIPOS>BOND
     1    1    2 1   
     2    2    3 1   
     3    2    6 1   
     4    3    4 1   
     5    3    5 1   
     6    4   30 1   
     7    4   31 1   
     8    4   32 1   
     9    5    9 1   
    10    5   33 1   
    11    6    7 1   
    12    6   34 1   
    13    7    8 1   
    14    7    9 1   
    15    9   10 1   
    16   10   11 1   
    17   10   14 1   
    18   10   35 1   
    19   11   12 1   
    20   11   36 1   
    21   11   37 1   
    22   12   13 1   
    23   12   15 1   
    24   12   38 1   
    25   13   39 1   
    26   14   15 1   
    27   15   16 1   
    28   15   40 1   
    29   16   17 1   
    30   16   41 1   
    31   16   42 1   
    32   17   18 1   
    33   18   19 1   
    34   18   20 1   
    35   18   21 1   
    36   21   22 1   
    37   21   43 1   
    38   21   44 1   
    39   22   23 1   
    40   22   24 1   
    41   22   25 1   
    42   25   45 1   
    43   25   46 1   
    44   26   27 1   
    45   26   28 1   
    46   26   29 1   
@<TRIPOS>SUBSTRUCTURE
     1 N6T         1 TEMP              0 ****  ****    0 ROOT
