@<TRIPOS>MOLECULE
molecule
   45    46     1     0     0
SMALL
bcc


@<TRIPOS>ATOM
      1 O4           0.0000     0.0000     0.0000 o          1 N6T      -0.753500
      2 C4           1.2180     0.0000     0.0000 c          1 N6T       0.683700
      3 C5           1.9330     0.0000     1.2220 cc         1 N6T      -0.351400
      4 C7           1.1960     0.0010     2.5370 c3         1 N6T       0.024100
      5 C6           3.2820    -0.0010     1.1940 cd         1 N6T      -0.150400
      6 N3           1.8980    -0.0060    -1.1650 ns         1 N6T      -0.572500
      7 C2           3.2440    -0.0070    -1.1630 c          1 N6T       0.806500
      8 O2           3.8440    -0.0130    -2.2210 o          1 N6T      -0.668500
      9 N1           3.9350    -0.0010    -0.0090 n          1 N6T      -0.328000
     10 C1'          5.3990    -0.0020    -0.0400 c3         1 N6T       0.319500
     11 C2'          5.9220    -1.2830    -0.7280 c3         1 N6T      -0.153400
     12 C3'          7.1560    -0.8040    -1.5250 c3         1 N6T       0.105100
     13 O3'          8.3360    -1.4660    -1.0670 oh         1 N6T      -0.613800
     14 O4'          5.8860     1.0820    -0.8600 os         1 N6T      -0.352600
     15 C4'          7.2320     0.7100    -1.2250 c3         1 N6T       0.132100
     16 C5'          7.6790     1.4780    -2.4700 c3         1 N6T       0.235400
     17 O5'          7.8570     2.8580    -2.1410 os         1 N6T      -0.593200
     18 PA           8.3240     3.9620    -3.2140 p5         1 N6T       1.155600
     19 O1A          7.1910     4.1230    -4.3470 o          1 N6T      -0.805000
     20 O2A          9.5930     3.5320    -3.8430 o          1 N6T      -0.805000
     21 C3A          8.5730     5.5590    -2.3730 c3         1 N6T      -0.421800
     22 PB           9.1030     6.8110    -3.5880 p5         1 N6T       1.141500
     23 O1B          8.0620     6.9580    -4.6300 o          1 N6T      -0.740500
     24 O2B         10.4840     6.3430    -4.2720 o          1 N6T      -0.740500
     25 N3B          9.3330     8.2860    -2.8120 n7         1 N6T      -0.912400
     26 PG           9.8240     9.4710    -3.9010 p5         1 N6T       1.192800
     27 O2G          8.7890     9.6410    -4.9450 o          1 N6T      -0.814500
     28 O1G         10.0330    10.8640    -3.1210 o          1 N6T      -0.814500
     29 O3G         11.2100     9.0270    -4.5880 o          1 N6T      -0.814500
     30 H1           0.4030    -0.7360     2.5070 hc         1 N6T       0.007700
     31 H2           0.7720     0.9820     2.7120 hc         1 N6T       0.007700
     32 H3           1.8850    -0.2430     3.3370 hc         1 N6T       0.007700
     33 H4           3.8460     0.0010     2.1190 h4         1 N6T       0.123000
     34 H5           1.4000    -0.0100    -2.0330 hn         1 N6T       0.331500
     35 H6           5.8030     0.0760     0.9620 h2         1 N6T       0.049700
     36 H7           5.1720    -1.6850    -1.3980 hc         1 N6T       0.049200
     37 H8           6.2130    -2.0180     0.0130 hc         1 N6T       0.049200
     38 H9           7.0070    -0.9710    -2.5850 h1         1 N6T       0.058700
     39 H10          8.5800    -2.1360    -1.6830 ho         1 N6T       0.382000
     40 H11          7.9080     0.8940    -0.3990 h1         1 N6T       0.054700
     41 H12          6.9250     1.3840    -3.2420 h1         1 N6T       0.035700
     42 H13          8.6160     1.0690    -2.8290 h1         1 N6T       0.035700
     43 H15          9.3350     5.4510    -1.6110 hc         1 N6T       0.034700
     44 H16          7.6440     5.8740    -1.9130 hc         1 N6T       0.034700
     45 H18          9.6620     8.3080    -1.8670 hn         1 N6T       0.349800
@<TRIPOS>BOND
     1     8     7 2
     2     7     6 1
     3     7     9 1
     4     6     2 1
     5    11    10 1
     6    11    12 1
     7    10     9 1
     8    10    14 1
     9     9     5 1
    10    13    12 1
    11     2     1 2
    12     2     3 1
    13    12    15 1
    14    14    15 1
    15    15    16 1
    16     5     3 2
    17     3     4 1
    18    23    22 1
    19    16    17 1
    20    17    18 1
    21    22    24 1
    22    22    21 1
    23    22    25 1
    24    21    18 1
    25    25    26 1
    26    18    20 1
    27    18    19 1
    28    26    27 1
    29    26    29 1
    30    26    28 1
    31     4    30 1
    32     4    31 1
    33     4    32 1
    34     5    33 1
    35     6    34 1
    36    10    35 1
    37    11    36 1
    38    11    37 1
    39    12    38 1
    40    13    39 1
    41    15    40 1
    42    16    41 1
    43    16    42 1
    44    21    43 1
    45    21    44 1
    46    25    45 1
@<TRIPOS>SUBSTRUCTURE
     1 N6T         1 TEMP              0 ****  ****    0 ROOT
