@<TRIPOS>MOLECULE
N6Y
   23    24     1     0     0
SMALL
bcc


@<TRIPOS>ATOM
      1 C            0.0000     0.0000     0.0000 ca         1 N6Y      -0.218300
      2 N            2.0620     0.0000     1.1300 nb         1 N6Y      -0.580000
      3 C1           1.3830     0.0000     0.0000 ca         1 N6Y       0.399200
      4 N1           0.2650     0.0020     7.2860 nv         1 N6Y      -0.538200
      5 C2           1.4620     0.0010     2.3030 ca         1 N6Y       0.402200
      6 C3           0.0700     0.0020     2.3860 cp         1 N6Y      -0.146300
      7 C4          -0.6780     0.0020     1.2070 ca         1 N6Y      -0.070000
      8 C5          -0.6050     0.0030     3.7090 cp         1 N6Y      -0.016000
      9 C6           0.1500     0.0020     4.8780 ca         1 N6Y      -0.128000
     10 C7          -0.4880     0.0030     6.1100 ca         1 N6Y       0.039600
     11 C8          -1.8760     0.0040     6.1730 ca         1 N6Y      -0.123000
     12 C9          -2.6240     0.0040     5.0110 ca         1 N6Y      -0.083000
     13 C10         -1.9980     0.0100     3.7810 ca         1 N6Y      -0.115000
     14 H           -0.5470     0.0000    -0.9350 ha         1 N6Y       0.112000
     15 H1           1.9160    -0.0010    -0.9430 h4         1 N6Y      -0.020900
     16 HN1          0.8410     0.7880     7.5120 hn         1 N6Y       0.272300
     17 HN1A         0.2700    -0.8070     7.8750 hn         1 N6Y       0.272300
     18 H2           2.0540     0.0010     3.2100 h4         1 N6Y      -0.011900
     19 H4          -1.7610     0.0020     1.2360 ha         1 N6Y       0.117000
     20 H6           1.2280    -0.0940     4.8260 ha         1 N6Y       0.118000
     21 H8          -2.3730    -0.0010     7.1350 ha         1 N6Y       0.108000
     22 H9          -3.7060     0.0070     5.0660 ha         1 N6Y       0.101000
     23 H10         -2.5880     0.0100     2.8730 ha         1 N6Y       0.110000
@<TRIPOS>BOND
     1     1     3 ar  
     2     1     7 ar  
     3     1    14 1   
     4     2     3 ar  
     5     2     5 ar  
     6     3    15 1   
     7     4    10 1   
     8     4    16 1   
     9     4    17 1   
    10     5     6 ar  
    11     5    18 1   
    12     6     7 ar  
    13     6     8 1   
    14     7    19 1   
    15     8     9 ar  
    16     8    13 ar  
    17     9    10 ar  
    18     9    20 1   
    19    10    11 ar  
    20    11    12 ar  
    21    11    21 1   
    22    12    13 ar  
    23    12    22 1   
    24    13    23 1   
@<TRIPOS>SUBSTRUCTURE
     1 N6Y         1 TEMP              0 ****  ****    0 ROOT
