@<TRIPOS>MOLECULE
molecule
   23    24     1     0     0
SMALL
bcc


@<TRIPOS>ATOM
      1 C            0.0000     0.0000     0.0000 ca         1 N6Y      -0.252300
      2 N            2.0620     0.0000     1.1300 nb         1 N6Y      -0.689000
      3 C1           1.3830     0.0000     0.0000 ca         1 N6Y       0.416200
      4 N1           0.2650     0.0020     7.2860 nv         1 N6Y      -0.978200
      5 C2           1.4620     0.0010     2.3030 ca         1 N6Y       0.426200
      6 C3           0.0700     0.0020     2.3860 cp         1 N6Y      -0.156300
      7 C4          -0.6780     0.0020     1.2070 ca         1 N6Y      -0.087000
      8 C5          -0.6050     0.0030     3.7090 cp         1 N6Y      -0.024000
      9 C6           0.1500     0.0020     4.8780 ca         1 N6Y      -0.150000
     10 C7          -0.4880     0.0030     6.1100 ca         1 N6Y       0.175600
     11 C8          -1.8760     0.0040     6.1730 ca         1 N6Y      -0.150000
     12 C9          -2.6240     0.0040     5.0110 ca         1 N6Y      -0.115000
     13 C10         -1.9980     0.0100     3.7810 ca         1 N6Y      -0.136000
     14 H           -0.5470     0.0000    -0.9350 ha         1 N6Y       0.138000
     15 H1           1.9160    -0.0010    -0.9430 h4         1 N6Y       0.022100
     16 HN1          0.8410     0.7880     7.5120 hn         1 N6Y       0.428800
     17 HN1A         0.2700    -0.8070     7.8750 hn         1 N6Y       0.428800
     18 H2           2.0540     0.0010     3.2100 h4         1 N6Y       0.027100
     19 H4          -1.7610     0.0020     1.2360 ha         1 N6Y       0.141000
     20 H6           1.2280    -0.0940     4.8260 ha         1 N6Y       0.138000
     21 H8          -2.3730    -0.0010     7.1350 ha         1 N6Y       0.136000
     22 H9          -3.7060     0.0070     5.0660 ha         1 N6Y       0.131000
     23 H10         -2.5880     0.0100     2.8730 ha         1 N6Y       0.130000
@<TRIPOS>BOND
     1     1     3 ar
     2     1     7 ar
     3     2     3 ar
     4     2     5 ar
     5     4    10 1
     6     5     6 ar
     7     6     7 ar
     8     6     8 1
     9     8     9 ar
    10     8    13 ar
    11     9    10 ar
    12    10    11 ar
    13    11    12 ar
    14    12    13 ar
    15     1    14 1
    16     3    15 1
    17     4    16 1
    18     4    17 1
    19     5    18 1
    20     7    19 1
    21     9    20 1
    22    11    21 1
    23    12    22 1
    24    13    23 1
@<TRIPOS>SUBSTRUCTURE
     1 N6Y         1 TEMP              0 ****  ****    0 ROOT
