@<TRIPOS>MOLECULE
N73
   55    55     1     0     0
SMALL
bcc


@<TRIPOS>ATOM
      1 OSB         0.1040   -1.5600    0.0960 oh        1 N73     -0.543300
      2 S2          1.6870   -1.2600    0.5370 s4        1 N73      0.806100
      3 OSA         1.4100   -1.9620    2.0190 oh        1 N73     -0.543300
      4 N1          1.1270    1.1860   -0.8000 n3        1 N73     -0.581700
      5 ON2        -0.1090    1.1930   -0.3110 os        1 N73     -0.279100
      6 C13        -1.1630    1.9840   -0.9610 c3        1 N73      0.104100
      7 C44        -1.3260    1.5910   -2.4110 c3        1 N73     -0.120100
      8 C15        -2.3990    1.6790   -0.1400 c3        1 N73     -0.120100
      9 C16         1.8650    2.4460   -0.5330 c3        1 N73      0.042500
     10 C18         2.0110    3.3820   -1.7530 c3        1 N73     -0.083700
     11 C19         2.7220    2.7220   -2.9150 c3        1 N73     -0.109600
     12 C20         2.7110    4.6650   -1.3580 c3        1 N73     -0.109600
     13 C17         3.2550    2.1060    0.0220 c         1 N73      0.576500
     14 O8          3.9100    1.1240   -0.3450 o         1 N73     -0.532100
     15 N8          3.7080    2.9220    1.1850 ne        1 N73     -0.008100
     16 OA8         4.4970    3.7430    1.0530 o         1 N73     -0.038300
     17 C1          2.4370   -2.4170   -0.3490 ca        1 N73     -0.293500
     18 C2          3.7340   -2.1260   -0.8230 ca        1 N73     -0.003000
     19 C3          4.4470   -3.0570   -1.5590 ca        1 N73     -0.153000
     20 C4          3.8890   -4.3150   -1.8600 cp        1 N73      0.112000
     21 C11         2.5880   -4.6040   -1.4020 ca        1 N73     -0.153000
     22 C12         1.8790   -3.6720   -0.6640 ca        1 N73     -0.003000
     23 C5          4.6390   -5.2960   -2.6310 cp        1 N73     -0.105000
     24 C6          5.4920   -4.8840   -3.6670 ca        1 N73     -0.093500
     25 C7          6.2060   -5.8250   -4.4040 ca        1 N73     -0.128000
     26 C8          6.0850   -7.1840   -4.1110 ca        1 N73     -0.088000
     27 C9          5.2430   -7.6010   -3.0790 ca        1 N73     -0.128000
     28 C10         4.5190   -6.6660   -2.3450 ca        1 N73     -0.093500
     29 H1         -0.4710   -0.7860    0.1810 ho        1 N73      0.499000
     30 H2          1.0750   -2.8660    2.0210 ho        1 N73      0.499000
     31 H3         -0.8830    3.0700   -0.8680 h1        1 N73      0.061700
     32 H4         -1.3590    0.4790   -2.5170 hc        1 N73      0.059367
     33 H5         -0.4890    1.9880   -3.0350 hc        1 N73      0.059367
     34 H6         -2.2830    2.0130   -2.8050 hc        1 N73      0.059367
     35 H7         -3.2480    2.3010   -0.5130 hc        1 N73      0.059367
     36 H8         -2.6720    0.6000   -0.2300 hc        1 N73      0.059367
     37 H9         -2.2200    1.9150    0.9360 hc        1 N73      0.059367
     38 H10         1.2880    3.0120    0.2620 h1        1 N73      0.105700
     39 H11         0.9630    3.6460   -2.0830 hc        1 N73      0.062700
     40 H12         2.0580    1.9860   -3.4310 hc        1 N73      0.053367
     41 H13         3.0200    3.4950   -3.6650 hc        1 N73      0.053367
     42 H14         3.6440    2.1920   -2.5720 hc        1 N73      0.053367
     43 H15         2.6080    5.4180   -2.1780 hc        1 N73      0.053367
     44 H16         3.8020    4.4910   -1.1870 hc        1 N73      0.053367
     45 H17         2.2640    5.0960   -0.4290 hc        1 N73      0.053367
     46 H18         4.1900   -1.1410   -0.6030 ha        1 N73      0.163500
     47 H19         5.4660   -2.8170   -1.9040 ha        1 N73      0.168500
     48 H20         2.1280   -5.5770   -1.6460 ha        1 N73      0.168500
     49 H21         0.8520   -3.9040   -0.3300 ha        1 N73      0.163500
     50 H22         5.5870   -3.8140   -3.9110 ha        1 N73      0.137000
     51 H23         6.8670   -5.4950   -5.2200 ha        1 N73      0.150000
     52 H24         6.6540   -7.9270   -4.6930 ha        1 N73      0.151000
     53 H25         5.1500   -8.6730   -2.8440 ha        1 N73      0.150000
     54 H26         3.8650   -7.0030   -1.5260 ha        1 N73      0.137000
     55 H111        1.1210    1.0300   -1.8080 hn        1 N73      0.376800
@<TRIPOS>BOND
     1    1    2 1   
     2    1   29 1   
     3    2    3 1   
     4    2   17 1   
     5    3   30 1   
     6    4    5 1   
     7    4    9 1   
     8    4   55 1   
     9    5    6 1   
    10    6    7 1   
    11    6    8 1   
    12    6   31 1   
    13    7   32 1   
    14    7   33 1   
    15    7   34 1   
    16    8   35 1   
    17    8   36 1   
    18    8   37 1   
    19    9   10 1   
    20    9   13 1   
    21    9   38 1   
    22   10   11 1   
    23   10   12 1   
    24   10   39 1   
    25   11   40 1   
    26   11   41 1   
    27   11   42 1   
    28   12   43 1   
    29   12   44 1   
    30   12   45 1   
    31   13   14 2   
    32   13   15 1   
    33   15   16 2   
    34   17   18 ar  
    35   17   22 ar  
    36   18   19 ar  
    37   18   46 1   
    38   19   20 ar  
    39   19   47 1   
    40   20   21 ar  
    41   20   23 1   
    42   21   22 ar  
    43   21   48 1   
    44   22   49 1   
    45   23   24 ar  
    46   23   28 ar  
    47   24   25 ar  
    48   24   50 1   
    49   25   26 ar  
    50   25   51 1   
    51   26   27 ar  
    52   26   52 1   
    53   27   28 ar  
    54   27   53 1   
    55   28   54 1   
@<TRIPOS>SUBSTRUCTURE
     1 N73         1 TEMP              0 ****  ****    0 ROOT
