@<TRIPOS>MOLECULE
molecule
   54    55     1     0     0
SMALL
bcc


@<TRIPOS>ATOM
      1 OSB          0.0000     0.0000     0.0000 oh         1 N73      -0.703700
      2 S2           1.6600     0.0000     0.0000 s6         1 N73       0.762900
      3 OSA          3.3200     0.0000     0.0290 oh         1 N73      -0.703700
      4 N1           1.6600     1.5160    -0.8740 n3         1 N73      -0.575900
      5 ON2          0.5830     1.5190    -1.8320 os         1 N73      -0.202100
      6 C13          1.0270     2.1050    -3.0620 c3         1 N73       0.121100
      7 C44          0.2290     1.5040    -4.2390 c3         1 N73      -0.104600
      8 C15          0.8050     3.6270    -3.0150 c3         1 N73      -0.104600
      9 C16          1.4770     2.6270     0.0730 c3         1 N73       0.114500
     10 C18          2.7180     2.7540     0.9640 c3         1 N73      -0.067700
     11 C19          3.9080     3.2300     0.1220 c3         1 N73      -0.086600
     12 C20          2.4400     3.7780     2.0890 c3         1 N73      -0.086600
     13 C17          0.2630     2.3600     0.9340 c          1 N73       0.497500
     14 O8           0.0250     1.2550     1.2970 o          1 N73      -0.406100
     15 N8          -0.5830     3.4640     1.3620 ne         1 N73      -0.061100
     16 OA8         -1.5370     3.2530     2.0260 o          1 N73      -0.084300
     17 C1           2.2750    -1.5230    -0.8500 ca         1 N73      -0.017500
     18 C2           1.9400    -2.7790    -0.3530 ca         1 N73      -0.083500
     19 C3           2.4020    -3.9250    -0.9910 ca         1 N73      -0.127500
     20 C4           3.1950    -3.8160    -2.1210 cp         1 N73      -0.017000
     21 C11          3.5290    -2.5630    -2.6170 ca         1 N73      -0.127500
     22 C12          3.0670    -1.4150    -1.9790 ca         1 N73      -0.083500
     23 C5           3.7100    -5.0960    -2.8320 cp         1 N73      -0.037000
     24 C6           4.5050    -4.9870    -3.9640 ca         1 N73      -0.118500
     25 C7           4.9660    -6.1330    -4.6020 ca         1 N73      -0.126000
     26 C8           4.6330    -7.3830    -4.1080 ca         1 N73      -0.127000
     27 C9           3.8370    -7.4920    -2.9740 ca         1 N73      -0.126000
     28 C10          3.3760    -6.3480    -2.3370 ca         1 N73      -0.118500
     29 H1          -0.3140    -0.8640     0.2090 ho         1 N73       0.418000
     30 H2           3.6260    -0.7750     0.4690 ho         1 N73       0.418000
     31 H3           2.0820     1.8990    -3.2000 h1         1 N73       0.061700
     32 H4           0.2030     0.4260    -4.1440 hc         1 N73       0.044367
     33 H5           0.7050     1.7740    -5.1740 hc         1 N73       0.044367
     34 H6          -0.7830     1.8920    -4.2240 hc         1 N73       0.044367
     35 H7           1.6610     4.1030    -2.5520 hc         1 N73       0.044367
     36 H8          -0.0850     3.8450    -2.4380 hc         1 N73       0.044367
     37 H9           0.6830     4.0060    -4.0230 hc         1 N73       0.044367
     38 H10          1.3330     3.5490    -0.4770 h1         1 N73       0.105700
     39 H11          2.9480     1.7900     1.4020 hc         1 N73       0.072700
     40 H12          4.1100     2.5070    -0.6580 hc         1 N73       0.042867
     41 H13          4.7810     3.3310     0.7560 hc         1 N73       0.042867
     42 H14          3.6730     4.1880    -0.3250 hc         1 N73       0.042867
     43 H15          1.9330     4.6410     1.6750 hc         1 N73       0.042867
     44 H16          1.8140     3.3210     2.8470 hc         1 N73       0.042867
     45 H17          3.3770     4.0890     2.5340 hc         1 N73       0.042867
     46 H18          1.3200    -2.8640     0.5300 ha         1 N73       0.136500
     47 H19          2.1410    -4.9020    -0.6040 ha         1 N73       0.135000
     48 H20          4.1500    -2.4790    -3.5010 ha         1 N73       0.135000
     49 H21          3.3280    -0.4380    -2.3660 ha         1 N73       0.136500
     50 H22          4.7660    -4.0100    -4.3510 ha         1 N73       0.132500
     51 H23          5.5870    -6.0480    -5.4860 ha         1 N73       0.131500
     52 H24          4.9930    -8.2760    -4.6050 ha         1 N73       0.131000
     53 H25          3.5770    -8.4700    -2.5880 ha         1 N73       0.131500
     54 H26          2.7560    -6.4330    -1.4530 ha         1 N73       0.132500
@<TRIPOS>BOND
     1     1     2 1
     2     2     3 1
     3     2     4 3
     4     2    17 1
     5     4     5 1
     6     4     9 1
     7     5     6 1
     8     6     7 1
     9     6     8 1
    10     9    10 1
    11     9    13 1
    12    10    11 1
    13    10    12 1
    14    13    14 2
    15    13    15 1
    16    15    16 2
    17    17    18 ar
    18    17    22 ar
    19    18    19 ar
    20    19    20 ar
    21    20    21 ar
    22    20    23 1
    23    21    22 ar
    24    23    24 ar
    25    23    28 ar
    26    24    25 ar
    27    25    26 ar
    28    26    27 ar
    29    27    28 ar
    30     1    29 1
    31     3    30 1
    32     6    31 1
    33     7    32 1
    34     7    33 1
    35     7    34 1
    36     8    35 1
    37     8    36 1
    38     8    37 1
    39     9    38 1
    40    10    39 1
    41    11    40 1
    42    11    41 1
    43    11    42 1
    44    12    43 1
    45    12    44 1
    46    12    45 1
    47    18    46 1
    48    19    47 1
    49    21    48 1
    50    22    49 1
    51    24    50 1
    52    25    51 1
    53    26    52 1
    54    27    53 1
    55    28    54 1
@<TRIPOS>SUBSTRUCTURE
     1 N73         1 TEMP              0 ****  ****    0 ROOT
