@<TRIPOS>MOLECULE
N75
   56    60     1     0     0
SMALL
bcc


@<TRIPOS>ATOM
      1 C1         -2.0500    1.3300    1.2040 ca        1 N75     -0.244000
      2 C2         -0.8500    2.0810    1.1280 ca        1 N75      0.260100
      3 C3          0.0560    2.1580    2.2240 ca        1 N75     -0.240600
      4 C4         -0.2070    1.4750    3.4010 ca        1 N75      0.003000
      5 C5         -1.3840    0.7240    3.5140 ca        1 N75     -0.191800
      6 C6         -2.2810    0.6780    2.3990 ca        1 N75      0.125100
      7 C7         -1.9990   -0.0650    4.5510 cc        1 N75      0.150100
      8 C8         -3.2190   -0.5300    4.0470 cd        1 N75     -0.033100
      9 O1         -3.4050   -0.0910    2.7090 os        1 N75     -0.216200
     10 C9         -4.3040   -1.2710    4.6030 ca        1 N75      0.049200
     11 C10        -5.4590   -1.5240    3.8280 ca        1 N75     -0.131000
     12 C11        -6.5870   -2.0910    4.4010 ca        1 N75     -0.153500
     13 C12        -6.5590   -2.4310    5.7640 ca        1 N75     -0.054900
     14 C13        -5.3910   -2.2980    6.5220 ca        1 N75     -0.153500
     15 C14        -4.2710   -1.7160    5.9410 ca        1 N75     -0.131000
     16 O2         -7.7430   -2.9630    6.2910 os        1 N75     -0.293900
     17 C15        -8.1950   -2.3310    7.4640 c3        1 N75      0.066400
     18 C16        -8.7600   -0.9320    7.2310 c         1 N75      0.508100
     19 N1         -8.0350   -0.0880    6.2070 n4        1 N75     -0.639800
     20 O3         -9.7200   -0.4460    7.8050 o         1 N75     -0.410100
     21 C17        -8.3930    1.3360    6.2130 cx        1 N75     -0.009500
     22 C18        -7.4290    2.3800    6.7410 cx        1 N75     -0.098900
     23 C19        -7.7000    2.3020    5.2710 cx        1 N75     -0.098900
     24 C20        -1.4560   -0.2820    5.8110 cg        1 N75     -0.122300
     25 C21        -0.9450   -0.4420    6.8860 ch        1 N75     -0.089000
     26 C22        -0.3340   -0.6160    8.1400 ca        1 N75      0.026000
     27 C23         0.9020   -0.0020    8.4110 ca        1 N75     -0.089000
     28 C24         1.5030   -0.1740    9.6560 ca        1 N75     -0.120000
     29 C25         0.8910   -0.9490   10.6400 ca        1 N75     -0.111000
     30 C26        -0.3370   -1.5590   10.3670 ca        1 N75      0.010400
     31 CL         -1.0940   -2.5070   11.5610 cl        1 N75     -0.101400
     32 C27        -0.9540   -1.4020    9.1250 ca        1 N75     -0.113000
     33 C28         1.3300    2.9950    2.1620 c         1 N75      0.923200
     34 O4          2.0540    3.0310    3.1880 o         1 N75     -0.809800
     35 O5          1.5800    3.6120    1.0830 o         1 N75     -0.809800
     36 O6         -0.6560    2.7100   -0.0540 oh        1 N75     -0.525100
     37 H1         -2.7360    1.2800    0.3530 ha        1 N75      0.156000
     38 H2          0.5170    1.5450    4.2310 ha        1 N75      0.176000
     39 H3         -5.4500   -1.2620    2.7560 ha        1 N75      0.173500
     40 H4         -7.4780   -2.3170    3.7960 ha        1 N75      0.149000
     41 H5         -5.3520   -2.6610    7.5600 ha        1 N75      0.149000
     42 H6         -3.3450   -1.6030    6.5290 ha        1 N75      0.173500
     43 H7         -9.0370   -2.9860    7.8320 h1        1 N75      0.122200
     44 H8         -7.3910   -2.2410    8.2450 h1        1 N75      0.122200
     45 H9         -7.0190   -0.1990    6.3630 hn        1 N75      0.472800
     46 H10        -9.4830    1.4620    6.4140 hx        1 N75      0.151700
     47 H11        -6.4330    2.0790    7.1170 hc        1 N75      0.110950
     48 H12        -7.8560    3.2090    7.3390 hc        1 N75      0.110950
     49 H13        -8.3290    3.0720    4.7830 hc        1 N75      0.110950
     50 H14        -6.8980    1.9450    4.5960 hc        1 N75      0.110950
     51 H15         1.3910    0.6110    7.6370 ha        1 N75      0.165000
     52 H16         2.4720    0.3060    9.8640 ha        1 N75      0.150000
     53 H17         1.3720   -1.0810   11.6220 ha        1 N75      0.151000
     54 H18        -1.9140   -1.8920    8.9110 ha        1 N75      0.138000
     55 H20         0.1990    3.2100   -0.0380 ho        1 N75      0.505000
     56 H121       -8.2390   -0.4860    5.2750 hn        1 N75      0.472800
@<TRIPOS>BOND
     1    1    2 ar
     2    1    6 ar
     3    1   37 1
     4    2    3 ar
     5    2   36 1
     6    3    4 ar
     7    3   33 1
     8    4    5 ar
     9    4   38 1
    10    5    6 ar
    11    5    7 1
    12    6    9 1
    13    7    8 2
    14    7   24 1
    15    8    9 1
    16    8   10 1
    17   10   11 ar
    18   10   15 ar
    19   11   12 ar
    20   11   39 1
    21   12   13 ar
    22   12   40 1
    23   13   14 ar
    24   13   16 1
    25   14   15 ar
    26   14   41 1
    27   15   42 1
    28   16   17 1
    29   17   18 1
    30   17   43 1
    31   17   44 1
    32   18   19 1
    33   18   20 2
    34   19   21 1
    35   19   45 1
    36   19   56 1
    37   21   22 1
    38   21   23 1
    39   21   46 1
    40   22   23 1
    41   22   47 1
    42   22   48 1
    43   23   49 1
    44   23   50 1
    45   24   25 3
    46   25   26 1
    47   26   27 ar
    48   26   32 ar
    49   27   28 ar
    50   27   51 1
    51   28   29 ar
    52   28   52 1
    53   29   30 ar
    54   29   53 1
    55   30   31 1
    56   30   32 ar
    57   32   54 1
    58   33   34 1
    59   33   35 1
    60   36   55 1
@<TRIPOS>SUBSTRUCTURE
     1 N75         1 TEMP              0 ****  ****    0 ROOT
