@<TRIPOS>MOLECULE
molecule
   51    54     1     0     0
SMALL
bcc


@<TRIPOS>ATOM
      1 C2           0.0000     0.0000     0.0000 ca         1 N76       0.969900
      2 C8           0.5930    -0.0260     4.3960 cc         1 N76       0.429700
      3 C10          3.7690     0.0150    -0.2480 c3         1 N76       0.121400
      4 C11          5.2970     0.0220    -0.3310 c3         1 N76      -0.011700
      5 C12          5.8410     1.2670     0.3690 c3         1 N76      -0.154900
      6 C13          7.3690     1.2740     0.2850 c3         1 N76      -0.060400
      7 C14          7.7990     1.2850    -1.1830 c3         1 N76      -0.078400
      8 C15          7.2550     0.0390    -1.8830 c3         1 N76      -0.060400
      9 C16          5.7270     0.0330    -1.8000 c3         1 N76      -0.154900
     10 C19          1.4690    -0.3140    -4.7730 ca         1 N76      -0.054000
     11 C20          0.3260     0.4640    -4.7220 ca         1 N76      -0.318500
     12 N2          -0.6690     0.0050    -1.2130 nu         1 N76      -0.758300
     13 C21         -0.3820     0.5750    -3.5420 ca         1 N76      -0.088000
     14 C22          0.0490    -0.1020    -2.4080 ca         1 N76       0.185600
     15 N26         -1.2470     0.3040    -6.9770 nz         1 N76      -0.807500
     16 N1           1.3270     0.0000     0.0000 nb         1 N76      -0.895000
     17 C6           2.0130     0.0000     1.1350 ca         1 N76       0.773600
     18 O6           3.3670     0.0050     1.1240 os         1 N76      -0.373100
     19 C5           1.3070    -0.0100     2.3480 ca         1 N76      -0.184200
     20 N7           1.6640    -0.0180     3.6560 nd         1 N76      -0.548100
     21 N9          -0.5200    -0.0260     3.6060 na         1 N76      -0.355000
     22 C4          -0.0980    -0.0160     2.3000 ca         1 N76       0.493800
     23 N3          -0.7060    -0.0100     1.1200 nb         1 N76      -0.812000
     24 C17          1.1960    -0.8820    -2.4630 ca         1 N76      -0.038000
     25 C18          1.9020    -0.9850    -3.6440 ca         1 N76      -0.116000
     26 O24         -1.0310     2.3870    -5.6920 o          1 N76      -0.520300
     27 O25          0.9230     1.4550    -6.9890 o          1 N76      -0.520300
     28 H8           0.5860    -0.0330     5.4790 h5         1 N76       0.093800
     29 H101         3.3770     0.9010    -0.7330 h1         1 N76       0.052700
     30 H102         3.3840    -0.8680    -0.7430 h1         1 N76       0.052700
     31 H11          5.6930    -0.8630     0.1520 hc         1 N76       0.038700
     32 H121         6.0120     0.2970     0.8190 hc         1 N76       0.065950
     33 H122         5.3050     1.8020     1.1440 hc         1 N76       0.065950
     34 H131         7.7520     2.1590     0.7790 hc         1 N76       0.042200
     35 H132         7.7600     0.3870     0.7680 hc         1 N76       0.042200
     36 H141         8.8810     1.2870    -1.2410 hc         1 N76       0.047200
     37 H142         7.4050     2.1710    -1.6670 hc         1 N76       0.047200
     38 H151         7.5580     0.0490    -2.9230 hc         1 N76       0.042200
     39 H152         7.6460    -0.8460    -1.3960 hc         1 N76       0.042200
     40 H161         5.3370     0.9210    -2.2820 hc         1 N76       0.065950
     41 H162         5.3430    -0.8510    -2.2930 hc         1 N76       0.065950
     42 H19          2.0240    -0.3980    -5.6990 ha         1 N76       0.154000
     43 HN21        -1.6690     0.0550    -1.2330 hn         1 N76       0.476800
     44 H21         -1.2770     1.1850    -3.5020 ha         1 N76       0.157000
     45 H261        -0.7580    -0.5320    -7.2320 hn         1 N76       0.491800
     46 H262        -1.5650     0.7690    -7.8050 hn         1 N76       0.491800
     47 HN9         -1.4700    -0.0310     3.9210 hn         1 N76       0.322700
     48 H17          1.5370    -1.4080    -1.5790 ha         1 N76       0.189000
     49 H18          2.7970    -1.5930    -3.6880 ha         1 N76       0.165000
     50 H263        -2.0190     0.0710    -6.3840 hn         1 N76       0.491800
     51 S23         -0.2230     1.3160    -6.1620 sy         1 N76       1.228200
@<TRIPOS>BOND
     1     1    12 1
     2     1    16 ar
     3     1    23 ar
     4     2    20 2
     5     2    21 1
     6     2    28 1
     7     3     4 1
     8     3    18 1
     9     3    29 1
    10     3    30 1
    11     4     5 1
    12     4     9 1
    13     4    31 1
    14     5     6 1
    15     5    32 1
    16     5    33 1
    17     6     7 1
    18     6    34 1
    19     6    35 1
    20     7     8 1
    21     7    36 1
    22     7    37 1
    23     8     9 1
    24     8    38 1
    25     8    39 1
    26     9    40 1
    27     9    41 1
    28    10    11 ar
    29    10    25 ar
    30    10    42 1
    31    11    13 ar
    32    11    51 1
    33    12    14 1
    34    12    43 1
    35    13    14 ar
    36    13    44 1
    37    14    24 ar
    38    15    51 1
    39    15    45 1
    40    15    46 1
    41    16    17 ar
    42    17    18 1
    43    17    19 ar
    44    19    20 1
    45    19    22 ar
    46    21    22 1
    47    21    47 1
    48    22    23 ar
    49    24    25 ar
    50    24    48 1
    51    25    49 1
    52    51    26 2
    53    51    27 2
    54    50    15 1
@<TRIPOS>SUBSTRUCTURE
     1 N76         1 TEMP              0 ****  ****    0 ROOT
