@<TRIPOS>MOLECULE
molecule
   37    39     1     0     0
SMALL
bcc


@<TRIPOS>ATOM
      1 N3           0.0000     0.0000     0.0000 nu         1 N77      -0.631100
      2 O4           1.4160     0.0000     0.0000 oh         1 N77      -0.328300
      3 C16         -0.6990     0.0000     1.2100 ca         1 N77       0.256600
      4 C1          -0.0100     0.0010     2.4070 ca         1 N77      -0.126000
      5 C2          -0.7070     0.0010     3.6080 ca         1 N77      -0.139300
      6 C3           0.0550     0.0020     4.9090 c3         1 N77       0.678200
      7 F1          -0.2790     1.1450     5.6430 f          1 N77      -0.216300
      8 F2          -0.2780    -1.1400     5.6460 f          1 N77      -0.216300
      9 F3           1.4290     0.0020     4.6440 f          1 N77      -0.216300
     10 C4          -2.0660     0.0010     3.6280 ca         1 N77      -0.046000
     11 C5          -2.8070     0.0000     2.4210 ca         1 N77      -0.055200
     12 N20         -4.1300    -0.0000     2.2530 na         1 N77       0.111500
     13 O58         -5.0050     0.0000     3.3650 o          1 N77      -0.296000
     14 C6          -4.5900    -0.0020     1.0460 cc         1 N77       0.066200
     15 S1          -3.2660    -0.0020    -0.1110 ss         1 N77      -0.063100
     16 C15         -2.1010     0.0060     1.2100 ca         1 N77      -0.075100
     17 C7          -6.0210    -0.0040     0.6900 c          1 N77       0.603800
     18 O1          -6.8650    -0.0040     1.5650 o          1 N77      -0.514100
     19 N1          -6.3930    -0.0040    -0.6060 ns         1 N77      -0.585900
     20 C8          -7.8140    -0.0050    -0.9600 c3         1 N77       0.172300
     21 C40         -7.9580    -0.0060    -2.4600 ca         1 N77      -0.249600
     22 C41         -8.0210     1.1890    -3.1600 ca         1 N77      -0.076000
     23 C42         -8.1530     1.1400    -4.5380 ca         1 N77      -0.257300
     24 C43         -8.2180    -0.0900    -5.1660 ca         1 N77       0.428200
     25 C45         -8.0240    -1.1980    -3.1550 ca         1 N77       0.436200
     26 N44         -8.1560    -1.2070    -4.4670 nb         1 N77      -0.689000
     27 H1          -0.5000    -0.0000    -0.8670 hn         1 N77       0.458800
     28 H2           1.7300     0.0060    -0.8890 ho         1 N77       0.415000
     29 H3           1.0730    -0.0440     2.4090 ha         1 N77       0.181000
     30 H5          -2.5870     0.0010     4.5770 ha         1 N77       0.185000
     31 H8          -5.6980    -0.0190    -1.3260 hn         1 N77       0.313500
     32 H9          -8.2880    -0.8900    -0.5510 h1         1 N77       0.066200
     33 H10         -8.2890     0.8790    -0.5520 h1         1 N77       0.066200
     34 H11         -7.9670     2.1390    -2.6410 ha         1 N77       0.145000
     35 H12         -8.2060     2.0550    -5.1170 ha         1 N77       0.143000
     36 H13         -8.3240    -0.1370    -6.2430 h4         1 N77       0.027100
     37 H14         -7.9760    -2.1360    -2.6160 h4         1 N77       0.030100
@<TRIPOS>BOND
     1    22    23 ar
     2    22    21 ar
     3     2     1 1
     4    23    24 ar
     5    20    21 1
     6    20    19 1
     7     1     3 1
     8    21    25 ar
     9    15    16 1
    10    15    14 1
    11    19    17 1
    12    24    26 ar
    13    17    18 2
    14    17    14 1
    15     3    16 ar
    16     3     4 ar
    17    25    26 ar
    18    16    11 ar
    19    14    12 2
    20     4     5 ar
    21    12    11 1
    22    12    13 1
    23    11    10 ar
    24     5    10 ar
    25     5     6 1
    26     8     6 1
    27     6     9 1
    28     6     7 1
    29     1    27 1
    30     2    28 1
    31     4    29 1
    32    10    30 1
    33    19    31 1
    34    20    32 1
    35    20    33 1
    36    22    34 1
    37    23    35 1
    38    24    36 1
    39    25    37 1
@<TRIPOS>SUBSTRUCTURE
     1 N77         1 TEMP              0 ****  ****    0 ROOT
