@<TRIPOS>MOLECULE
N77
   37    39     1     0     0
SMALL
bcc


@<TRIPOS>ATOM
      1 N3           0.0000     0.0000     0.0000 nu         1 N77      -0.190100
      2 O4           1.4160     0.0000     0.0000 oh         1 N77      -0.417300
      3 C16         -0.6990     0.0000     1.2100 ca         1 N77       0.098600
      4 C1          -0.0100     0.0010     2.4070 ca         1 N77      -0.078000
      5 C2          -0.7070     0.0010     3.6080 ca         1 N77      -0.174300
      6 C3           0.0550     0.0020     4.9090 c3         1 N77       0.641200
      7 F1          -0.2790     1.1450     5.6430 f          1 N77      -0.202633
      8 F2          -0.2780    -1.1400     5.6460 f          1 N77      -0.202633
      9 F3           1.4290     0.0020     4.6440 f          1 N77      -0.202633
     10 C4          -2.0660     0.0010     3.6280 ca         1 N77       0.025000
     11 C5          -2.8070     0.0000     2.4210 ca         1 N77      -0.320200
     12 N20         -4.1300    -0.0000     2.2530 na         1 N77       0.805500
     13 O58         -5.0050     0.0000     3.3650 o          1 N77      -0.463000
     14 C6          -4.5900    -0.0020     1.0460 cc         1 N77      -0.216800
     15 S1          -3.2660    -0.0020    -0.1110 ss         1 N77      -0.164100
     16 C15         -2.1010     0.0060     1.2100 ca         1 N77      -0.009100
     17 C7          -6.0210    -0.0040     0.6900 c          1 N77       0.546800
     18 O1          -6.8650    -0.0040     1.5650 o          1 N77      -0.569100
     19 N1          -6.3930    -0.0040    -0.6060 ns         1 N77      -0.201900
     20 C8          -7.8140    -0.0050    -0.9600 c3         1 N77       0.124300
     21 C40         -7.9580    -0.0060    -2.4600 ca         1 N77      -0.249600
     22 C41         -8.0210     1.1890    -3.1600 ca         1 N77      -0.050000
     23 C42         -8.1530     1.1400    -4.5380 ca         1 N77      -0.224300
     24 C43         -8.2180    -0.0900    -5.1660 ca         1 N77       0.413200
     25 C45         -8.0240    -1.1980    -3.1550 ca         1 N77       0.422200
     26 N44         -8.1560    -1.2070    -4.4670 nb         1 N77      -0.582000
     27 H1          -0.5000    -0.0000    -0.8670 hn         1 N77       0.288800
     28 H2           1.7300     0.0060    -0.8890 ho         1 N77       0.411000
     29 H3           1.0730    -0.0440     2.4090 ha         1 N77       0.150000
     30 H5          -2.5870     0.0010     4.5770 ha         1 N77       0.149000
     31 H8          -5.6980    -0.0190    -1.3260 hn         1 N77       0.178500
     32 H9          -8.2880    -0.8900    -0.5510 h1         1 N77       0.033200
     33 H10         -8.2890     0.8790    -0.5520 h1         1 N77       0.033200
     34 H11         -7.9670     2.1390    -2.6410 ha         1 N77       0.114000
     35 H12         -8.2060     2.0550    -5.1170 ha         1 N77       0.116000
     36 H13         -8.3240    -0.1370    -6.2430 h4         1 N77      -0.018900
     37 H14         -7.9760    -2.1360    -2.6160 h4         1 N77      -0.013900
@<TRIPOS>BOND
     1     1     2 1   
     2     1     3 1   
     3     1    27 1   
     4     2    28 1   
     5     3     4 ar  
     6     3    16 ar  
     7     4     5 ar  
     8     4    29 1   
     9     5     6 1   
    10     5    10 ar  
    11     6     7 1   
    12     6     8 1   
    13     6     9 1   
    14    10    11 ar  
    15    10    30 1   
    16    11    12 1   
    17    11    16 ar  
    18    12    13 1   
    19    12    14 2   
    20    14    15 1   
    21    14    17 1   
    22    15    16 1   
    23    17    18 2   
    24    17    19 1   
    25    19    20 1   
    26    19    31 1   
    27    20    21 1   
    28    20    32 1   
    29    20    33 1   
    30    21    22 ar  
    31    21    25 ar  
    32    22    23 ar  
    33    22    34 1   
    34    23    24 ar  
    35    23    35 1   
    36    24    26 ar  
    37    24    36 1   
    38    25    26 ar  
    39    25    37 1   
@<TRIPOS>SUBSTRUCTURE
     1 N77         1 TEMP              0 ****  ****    0 ROOT
