@<TRIPOS>MOLECULE
molecule
   55    54     1     0     0
SMALL
bcc


@<TRIPOS>ATOM
      1 O01          0.0000     0.0000     0.0000 o          1 N7E      -0.910167
      2 P02          1.6100     0.0000     0.0000 p5         1 N7E       1.179900
      3 O03          2.1470     0.0000     1.5170 o          1 N7E      -0.910167
      4 O04          2.1040    -1.2080    -0.6980 o          1 N7E      -0.910167
      5 O05          2.1450     1.3160    -0.7590 os         1 N7E      -0.584200
      6 C06          3.5300     1.5540    -1.0180 c3         1 N7E       0.229400
      7 C07          3.6890     2.8880    -1.7520 c3         1 N7E      -0.068000
      8 C08          2.9240     2.8360    -3.0760 c3         1 N7E      -0.067100
      9 C09          3.1290     4.0170    -0.8840 c3         1 N7E      -0.067100
     10 C10          5.1720     3.1440    -2.0290 c3         1 N7E       0.088100
     11 O11          5.8640     3.3230    -0.7910 oh         1 N7E      -0.551800
     12 C12          5.7550     1.9670    -2.7660 c          1 N7E       0.643100
     13 O13          6.5650     1.2490    -2.2170 o          1 N7E      -0.589100
     14 N14          5.3780     1.7110    -4.0350 ns         1 N7E      -0.599900
     15 C15          5.8710     0.5130    -4.7170 c3         1 N7E       0.129000
     16 C16          5.2970     0.4610    -6.1350 c3         1 N7E      -0.175400
     17 C17          5.8040    -0.7710    -6.8370 c          1 N7E       0.663100
     18 O18          6.5500    -1.5350    -6.2610 o          1 N7E      -0.595100
     19 N19          5.4260    -1.0280    -8.1060 ns         1 N7E      -0.599900
     20 C20          5.9190    -2.2270    -8.7890 c3         1 N7E       0.115000
     21 C21          5.3440    -2.2780   -10.2060 c3         1 N7E      -0.099400
     22 C22          5.8590    -3.5300   -10.9200 c3         1 N7E      -0.077400
     23 C23          5.2840    -3.5820   -12.3360 c3         1 N7E      -0.081400
     24 C24          5.7980    -4.8340   -13.0510 c3         1 N7E       0.135400
     25 O25          5.2610    -4.8820   -14.3730 os         1 N7E      -0.432600
     26 C26          5.6820    -6.0190   -15.1300 c3         1 N7E       0.131700
     27 H3           3.9260     0.7550    -1.6320 h1         1 N7E       0.030200
     28 H4           4.0720     1.5910    -0.0810 h1         1 N7E       0.030200
     29 H5           3.3570     3.5450    -3.7710 hc         1 N7E       0.028367
     30 H6           1.8850     3.0890    -2.9020 hc         1 N7E       0.028367
     31 H7           2.9880     1.8380    -3.4910 hc         1 N7E       0.028367
     32 H8           2.0490     3.9470    -0.8510 hc         1 N7E       0.028367
     33 H9           3.5260     3.9320     0.1210 hc         1 N7E       0.028367
     34 H10          3.4160     4.9730    -1.3050 hc         1 N7E       0.028367
     35 H11          5.2770     4.0360    -2.6340 h1         1 N7E       0.005700
     36 H12          6.6170     3.8740    -0.9290 ho         1 N7E       0.373000
     37 H13          4.8130     2.3720    -4.5300 hn         1 N7E       0.306500
     38 H14          6.9520     0.5440    -4.7670 h1         1 N7E       0.071700
     39 H15          5.5600    -0.3680    -4.1690 h1         1 N7E       0.071700
     40 H16          4.2150     0.4290    -6.0850 hc         1 N7E       0.060700
     41 H17          5.6070     1.3430    -6.6820 hc         1 N7E       0.060700
     42 H18          4.8090    -0.3990    -8.5810 hn         1 N7E       0.308500
     43 H19          5.6080    -3.1080    -8.2410 h1         1 N7E       0.052200
     44 H20          7.0000    -2.1950    -8.8390 h1         1 N7E       0.052200
     45 H21          4.2620    -2.3090   -10.1560 hc         1 N7E       0.045200
     46 H22          5.6550    -1.3960   -10.7530 hc         1 N7E       0.045200
     47 H23          5.5480    -4.4120   -10.3720 hc         1 N7E       0.045700
     48 H24          6.9400    -3.4990   -10.9700 hc         1 N7E       0.045700
     49 H25          5.5950    -2.7000   -12.8840 hc         1 N7E       0.052700
     50 H26          4.2020    -3.6130   -12.2860 hc         1 N7E       0.052700
     51 H27          6.8800    -4.8030   -13.1010 h1         1 N7E       0.023200
     52 H28          5.4880    -5.7160   -12.5030 h1         1 N7E       0.023200
     53 H29          5.3680    -6.9250   -14.6260 h1         1 N7E       0.025700
     54 H30          6.7620    -6.0130   -15.2210 h1         1 N7E       0.025700
     55 H31          5.2360    -5.9820   -16.1170 h1         1 N7E       0.025700
@<TRIPOS>BOND
     1    26    25 1
     2    25    24 1
     3    24    23 1
     4    23    22 1
     5    22    21 1
     6    21    20 1
     7     9     7 1
     8    19    20 1
     9    19    17 1
    10    16    17 1
    11    16    15 1
    12    17    18 2
    13     8     7 1
    14     7     6 1
    15     7    10 1
    16     6     5 1
    17    15    14 1
    18    14    12 1
    19    13    12 2
    20    12    10 1
    21    10    11 1
    22     5     2 1
    23     4     2 1
    24     2     1 1
    25     2     3 1
    26     6    27 1
    27     6    28 1
    28     8    29 1
    29     8    30 1
    30     8    31 1
    31     9    32 1
    32     9    33 1
    33     9    34 1
    34    10    35 1
    35    11    36 1
    36    14    37 1
    37    15    38 1
    38    15    39 1
    39    16    40 1
    40    16    41 1
    41    19    42 1
    42    20    43 1
    43    20    44 1
    44    21    45 1
    45    21    46 1
    46    22    47 1
    47    22    48 1
    48    23    49 1
    49    23    50 1
    50    24    51 1
    51    24    52 1
    52    26    53 1
    53    26    54 1
    54    26    55 1
@<TRIPOS>SUBSTRUCTURE
     1 N7E         1 TEMP              0 ****  ****    0 ROOT
