@<TRIPOS>MOLECULE
N7E
   55    54     1     0     0
SMALL
bcc


@<TRIPOS>ATOM
      1 O01          0.0000     0.0000     0.0000 o          1 N7E      -0.754833
      2 P02          1.6100     0.0000     0.0000 p5         1 N7E       0.666900
      3 O03          2.1470     0.0000     1.5170 o          1 N7E      -0.754833
      4 O04          2.1040    -1.2080    -0.6980 o          1 N7E      -0.754833
      5 O05          2.1450     1.3160    -0.7590 os         1 N7E      -0.481200
      6 C06          3.5300     1.5540    -1.0180 c3         1 N7E       0.284400
      7 C07          3.6890     2.8880    -1.7520 c3         1 N7E      -0.098000
      8 C08          2.9240     2.8360    -3.0760 c3         1 N7E       0.016900
      9 C09          3.1290     4.0170    -0.8840 c3         1 N7E       0.016900
     10 C10          5.1720     3.1440    -2.0290 c3         1 N7E       0.135100
     11 O11          5.8640     3.3230    -0.7910 oh         1 N7E      -0.528800
     12 C12          5.7550     1.9670    -2.7660 c          1 N7E       0.564100
     13 O13          6.5650     1.2490    -2.2170 o          1 N7E      -0.628100
     14 N14          5.3780     1.7110    -4.0350 ns         1 N7E      -0.234900
     15 C15          5.8710     0.5130    -4.7170 c3         1 N7E       0.066000
     16 C16          5.2970     0.4610    -6.1350 c3         1 N7E      -0.109400
     17 C17          5.8040    -0.7710    -6.8370 c          1 N7E       0.580100
     18 O18          6.5500    -1.5350    -6.2610 o          1 N7E      -0.630100
     19 N19          5.4260    -1.0280    -8.1060 ns         1 N7E      -0.222900
     20 C20          5.9190    -2.2270    -8.7890 c3         1 N7E       0.055000
     21 C21          5.3440    -2.2780   -10.2060 c3         1 N7E      -0.041400
     22 C22          5.8590    -3.5300   -10.9200 c3         1 N7E      -0.018400
     23 C23          5.2840    -3.5820   -12.3360 c3         1 N7E      -0.036400
     24 C24          5.7980    -4.8340   -13.0510 c3         1 N7E       0.210400
     25 O25          5.2610    -4.8820   -14.3730 os         1 N7E      -0.420600
     26 C26          5.6820    -6.0190   -15.1300 c3         1 N7E       0.255700
     27 H3           3.9260     0.7550    -1.6320 h1         1 N7E      -0.011300
     28 H4           4.0720     1.5910    -0.0810 h1         1 N7E      -0.011300
     29 H5           3.3570     3.5450    -3.7710 hc         1 N7E      -0.002467
     30 H6           1.8850     3.0890    -2.9020 hc         1 N7E      -0.002467
     31 H7           2.9880     1.8380    -3.4910 hc         1 N7E      -0.002467
     32 H8           2.0490     3.9470    -0.8510 hc         1 N7E      -0.002467
     33 H9           3.5260     3.9320     0.1210 hc         1 N7E      -0.002467
     34 H10          3.4160     4.9730    -1.3050 hc         1 N7E      -0.002467
     35 H11          5.2770     4.0360    -2.6340 h1         1 N7E      -0.029300
     36 H12          6.6170     3.8740    -0.9290 ho         1 N7E       0.352000
     37 H13          4.8130     2.3720    -4.5300 hn         1 N7E       0.177500
     38 H14          6.9520     0.5440    -4.7670 h1         1 N7E       0.042700
     39 H15          5.5600    -0.3680    -4.1690 h1         1 N7E       0.042700
     40 H16          4.2150     0.4290    -6.0850 hc         1 N7E       0.027200
     41 H17          5.6070     1.3430    -6.6820 hc         1 N7E       0.027200
     42 H18          4.8090    -0.3990    -8.5810 hn         1 N7E       0.170500
     43 H19          5.6080    -3.1080    -8.2410 h1         1 N7E       0.024700
     44 H20          7.0000    -2.1950    -8.8390 h1         1 N7E       0.024700
     45 H21          4.2620    -2.3090   -10.1560 hc         1 N7E       0.016700
     46 H22          5.6550    -1.3960   -10.7530 hc         1 N7E       0.016700
     47 H23          5.5480    -4.4120   -10.3720 hc         1 N7E       0.017200
     48 H24          6.9400    -3.4990   -10.9700 hc         1 N7E       0.017200
     49 H25          5.5950    -2.7000   -12.8840 hc         1 N7E       0.021700
     50 H26          4.2020    -3.6130   -12.2860 hc         1 N7E       0.021700
     51 H27          6.8800    -4.8030   -13.1010 h1         1 N7E      -0.009800
     52 H28          5.4880    -5.7160   -12.5030 h1         1 N7E      -0.009800
     53 H29          5.3680    -6.9250   -14.6260 h1         1 N7E      -0.016967
     54 H30          6.7620    -6.0130   -15.2210 h1         1 N7E      -0.016967
     55 H31          5.2360    -5.9820   -16.1170 h1         1 N7E      -0.016967
@<TRIPOS>BOND
     1     1     2 1   
     2     2     3 1   
     3     2     4 1   
     4     2     5 1   
     5     5     6 1   
     6     6     7 1   
     7     6    27 1   
     8     6    28 1   
     9     7     8 1   
    10     7     9 1   
    11     7    10 1   
    12     8    29 1   
    13     8    30 1   
    14     8    31 1   
    15     9    32 1   
    16     9    33 1   
    17     9    34 1   
    18    10    11 1   
    19    10    12 1   
    20    10    35 1   
    21    11    36 1   
    22    12    13 2   
    23    12    14 1   
    24    14    15 1   
    25    14    37 1   
    26    15    16 1   
    27    15    38 1   
    28    15    39 1   
    29    16    17 1   
    30    16    40 1   
    31    16    41 1   
    32    17    18 2   
    33    17    19 1   
    34    19    20 1   
    35    19    42 1   
    36    20    21 1   
    37    20    43 1   
    38    20    44 1   
    39    21    22 1   
    40    21    45 1   
    41    21    46 1   
    42    22    23 1   
    43    22    47 1   
    44    22    48 1   
    45    23    24 1   
    46    23    49 1   
    47    23    50 1   
    48    24    25 1   
    49    24    51 1   
    50    24    52 1   
    51    25    26 1   
    52    26    53 1   
    53    26    54 1   
    54    26    55 1   
@<TRIPOS>SUBSTRUCTURE
     1 N7E         1 TEMP              0 ****  ****    0 ROOT
