@<TRIPOS>MOLECULE
molecule
   65    70     1     0     0
SMALL
bcc


@<TRIPOS>ATOM
      1 N1           0.0000     0.0000     0.0000 n          1 N7F      -0.365300
      2 C2           1.3570     0.0000     0.0000 cc         1 N7F       0.509800
      3 N3           2.0470     0.0000     1.1050 nd         1 N7F      -0.616100
      4 C4          -0.6870     0.0010     1.1640 c          1 N7F       0.727100
      5 C5           0.0400     0.0010     2.3700 cc         1 N7F      -0.222900
      6 C6           1.4350     0.0000     2.3030 cd         1 N7F       0.197400
      7 C7           1.9110     0.0010     3.6890 cd         1 N7F      -0.125000
      8 C8           0.7740     0.0010     4.4950 cc         1 N7F       0.121300
      9 N9          -0.3290     0.0010     3.7030 na         1 N7F       0.024900
     10 C10          3.2740    -0.0000     4.1280 ch         1 N7F       0.270800
     11 N11          4.3490    -0.0040     4.4950 n1         1 N7F      -0.368800
     12 N12          0.7700     0.0010     5.8700 nh         1 N7F      -0.601000
     13 C13          1.4540    -1.1860     6.3980 c3         1 N7F       0.179800
     14 C14          1.3030    -1.2280     7.9210 c3         1 N7F       0.113500
     15 C15          1.9090     0.0430     8.5230 c3         1 N7F      -0.106400
     16 C16          1.2110     1.2660     7.9200 c3         1 N7F      -0.072400
     17 C17          1.3650     1.2360     6.3980 c3         1 N7F       0.161800
     18 N18          2.0050    -2.4040     8.4510 nz         1 N7F      -1.013600
     19 C19         -1.7100     0.0020     4.1920 c3         1 N7F       0.084600
     20 C20         -2.1840    -1.4190     4.3600 ca         1 N7F      -0.122300
     21 C21         -2.0030    -2.0690     5.5660 ca         1 N7F      -0.110500
     22 C22         -2.4390    -3.3720     5.7200 ca         1 N7F      -0.134000
     23 C23         -3.0550    -4.0240     4.6680 ca         1 N7F      -0.105000
     24 C24         -3.2370    -3.3730     3.4620 ca         1 N7F      -0.134000
     25 C25         -2.8050    -2.0680     3.3090 ca         1 N7F      -0.110500
     26 O26         -1.9070     0.0020     1.1690 o          1 N7F      -0.643500
     27 C27         -0.7270     0.0070    -1.2710 c3         1 N7F       0.139300
     28 C28         -1.8780    -0.6360    -3.8720 ca         1 N7F      -0.142000
     29 C29         -2.4150    -0.9340    -5.0860 ca         1 N7F      -0.132000
     30 C30         -2.5440    -2.2580    -5.5060 ca         1 N7F      -0.130000
     31 C31         -2.1370    -3.2880    -4.7160 ca         1 N7F      -0.157300
     32 C32         -0.8860    -1.4080    -1.7660 ca         1 N7F      -0.068300
     33 C33         -1.4470    -1.6740    -3.0300 ca         1 N7F      -0.115300
     34 C34         -1.5770    -3.0200    -3.4540 ca         1 N7F       0.430600
     35 N35         -1.1680    -4.0120    -2.6560 nb         1 N7F      -0.663000
     36 C36         -0.6470    -3.7680    -1.4780 ca         1 N7F       0.431200
     37 C37         -0.4910    -2.4680    -1.0010 ca         1 N7F      -0.253300
     38 H2           1.8830     0.0010    -0.9470 h5         1 N7F       0.079800
     39 H271        -1.7050     0.4500    -1.1260 h1         1 N7F       0.093200
     40 H272        -0.1740     0.5850    -2.0010 h1         1 N7F       0.093200
     41 H191        -1.7550     0.5130     5.1460 h1         1 N7F       0.090700
     42 H192        -2.3450     0.5130     3.4780 h1         1 N7F       0.090700
     43 H131         2.5050    -1.1400     6.1420 h1         1 N7F       0.075700
     44 H132         1.0110    -2.0770     5.9690 h1         1 N7F       0.075700
     45 H171         0.8580     2.0920     5.9690 h1         1 N7F       0.074200
     46 H172         2.4170     1.2670     6.1420 h1         1 N7F       0.074200
     47 H14          0.2520    -1.2820     8.1770 hx         1 N7F       0.090700
     48 H151         1.7640     0.0380     9.5970 hc         1 N7F       0.066200
     49 H152         2.9670     0.0820     8.2950 hc         1 N7F       0.066200
     50 H181         1.7720    -3.2080     7.9020 hn         1 N7F       0.522467
     51 H182         1.7290    -2.5580     9.4010 hn         1 N7F       0.522467
     52 H161         1.6660     2.1690     8.3100 hc         1 N7F       0.077700
     53 H162         0.1590     1.2450     8.1770 hc         1 N7F       0.077700
     54 H21         -1.5200    -1.5580     6.3900 ha         1 N7F       0.140000
     55 H25         -2.9480    -1.5570     2.3650 ha         1 N7F       0.140000
     56 H22         -2.2970    -3.8830     6.6650 ha         1 N7F       0.132000
     57 H23         -3.3950    -5.0450     4.7880 ha         1 N7F       0.140000
     58 H24         -3.7220    -3.8830     2.6390 ha         1 N7F       0.132000
     59 H30         -2.9740    -2.4820    -6.4740 ha         1 N7F       0.139000
     60 H31         -2.2850    -4.2740    -5.1380 ha         1 N7F       0.154000
     61 H37          0.0590    -2.2980    -0.0830 ha         1 N7F       0.132000
     62 H36         -0.3230    -4.5880    -0.8490 h4         1 N7F       0.025100
     63 H28         -1.9620     0.4420    -3.9310 ha         1 N7F       0.152000
     64 H183         2.0660    -2.3360     9.4480 hn         1 N7F       0.522467
     65 H29         -2.7760    -0.2190    -5.8150 ha         1 N7F       0.138000
@<TRIPOS>BOND
     1     1     2 1
     2     1     4 1
     3     1    27 1
     4     2     3 2
     5     3     6 1
     6     4     5 1
     7     4    26 2
     8     5     6 2
     9     5     9 1
    10     6     7 1
    11     7     8 2
    12     7    10 1
    13     8     9 1
    14     8    12 1
    15     9    19 1
    16    10    11 3
    17    12    13 1
    18    12    17 1
    19    13    14 1
    20    14    15 1
    21    14    18 1
    22    15    16 1
    23    16    17 1
    24    19    20 1
    25    20    21 ar
    26    20    25 ar
    27    21    22 ar
    28    22    23 ar
    29    23    24 ar
    30    24    25 ar
    31    27    32 1
    32    28    29 ar
    33    28    33 ar
    34    29    30 ar
    35    30    31 ar
    36    31    34 ar
    37    32    33 ar
    38    32    37 ar
    39    33    34 ar
    40    34    35 ar
    41    35    36 ar
    42    36    37 ar
    43     2    38 1
    44    27    39 1
    45    27    40 1
    46    19    41 1
    47    19    42 1
    48    13    43 1
    49    13    44 1
    50    17    45 1
    51    17    46 1
    52    14    47 1
    53    15    48 1
    54    15    49 1
    55    18    50 1
    56    18    51 1
    57    16    52 1
    58    16    53 1
    59    21    54 1
    60    25    55 1
    61    22    56 1
    62    23    57 1
    63    24    58 1
    64    28    63 1
    65    29    65 1
    66    30    59 1
    67    31    60 1
    68    37    61 1
    69    36    62 1
    70    64    18 1
@<TRIPOS>SUBSTRUCTURE
     1 N7F         1 TEMP              0 ****  ****    0 ROOT
