@<TRIPOS>MOLECULE
N7F
   65    71     1     0     0
SMALL
bcc


@<TRIPOS>ATOM
      1 N1           0.0000     0.0000     0.0000 n          1 N7F       0.164000
      2 C2           1.3570     0.0000     0.0000 c2         1 N7F      -0.085000
      3 N3           2.0470     0.0000     1.1050 n2         1 N7F      -0.070000
      4 C4          -0.6870     0.0010     1.1640 c2         1 N7F       0.294000
      5 C5           0.0400     0.0010     2.3700 c2         1 N7F      -0.384000
      6 C6           1.4350     0.0000     2.3030 c2         1 N7F       0.019000
      7 C7           1.9110     0.0010     3.6890 c2         1 N7F      -0.075000
      8 C8           0.7740     0.0010     4.4950 c2         1 N7F      -0.238000
      9 N9          -0.3290     0.0010     3.7030 na         1 N7F       0.507000
     10 C10          3.2740    -0.0000     4.1280 c1         1 N7F      -0.059000
     11 N11          4.3490    -0.0040     4.4950 n1         1 N7F      -0.066000
     12 N12          0.7700     0.0010     5.8700 nh         1 N7F       0.054000
     13 C13          1.4540    -1.1860     6.3980 c3         1 N7F      -0.091000
     14 C14          1.3030    -1.2280     7.9210 c3         1 N7F      -0.184000
     15 C15          1.9090     0.0430     8.5230 c3         1 N7F      -0.119000
     16 C16          1.2110     1.2660     7.9200 c3         1 N7F      -0.088000
     17 C17          1.3650     1.2360     6.3980 c3         1 N7F      -0.109000
     18 N18          2.0050    -2.4040     8.4510 nz         1 N7F       0.306000
     19 C19         -1.7100     0.0020     4.1920 c3         1 N7F      -0.090000
     20 C20         -2.1840    -1.4190     4.3600 ca         1 N7F      -0.123000
     21 C21         -2.0030    -2.0690     5.5660 ca         1 N7F      -0.091500
     22 C22         -2.4390    -3.3720     5.7200 ca         1 N7F      -0.102000
     23 C23         -3.0550    -4.0240     4.6680 ca         1 N7F      -0.076000
     24 C24         -3.2370    -3.3730     3.4620 ca         1 N7F      -0.102000
     25 C25         -2.8050    -2.0680     3.3090 ca         1 N7F      -0.091500
     26 O26         -1.9070     0.0020     1.1690 o          1 N7F      -0.416000
     27 C27         -0.7270     0.0070    -1.2710 c3         1 N7F      -0.041000
     28 C28         -1.8780    -0.6360    -3.8720 ca         1 N7F      -0.117000
     29 C29         -2.4150    -0.9340    -5.0860 ca         1 N7F      -0.104000
     30 C30         -2.5440    -2.2580    -5.5060 ca         1 N7F      -0.106000
     31 C31         -2.1370    -3.2880    -4.7160 ca         1 N7F      -0.065000
     32 C32         -0.8860    -1.4080    -1.7660 c2         1 N7F      -0.070000
     33 C33         -1.4470    -1.6740    -3.0300 ca         1 N7F      -0.032000
     34 C34         -1.5770    -3.0200    -3.4540 ca         1 N7F      -0.010000
     35 N35         -1.1680    -4.0120    -2.6560 n2         1 N7F      -0.021000
     36 C36         -0.6470    -3.7680    -1.4780 c2         1 N7F      -0.054000
     37 C37         -0.4910    -2.4680    -1.0010 c2         1 N7F      -0.170000
     38 H2           1.8830     0.0010    -0.9470 h5         1 N7F       0.155000
     39 H271        -1.7050     0.4500    -1.1260 h1         1 N7F       0.099500
     40 H272        -0.1740     0.5850    -2.0010 h1         1 N7F       0.099500
     41 H191        -1.7550     0.5130     5.1460 h1         1 N7F       0.103500
     42 H192        -2.3450     0.5130     3.4780 h1         1 N7F       0.103500
     43 H131         2.5050    -1.1400     6.1420 h1         1 N7F       0.084500
     44 H132         1.0110    -2.0770     5.9690 h1         1 N7F       0.084500
     45 H171         0.8580     2.0920     5.9690 h1         1 N7F       0.083000
     46 H172         2.4170     1.2670     6.1420 h1         1 N7F       0.083000
     47 H14          0.2520    -1.2820     8.1770 hx         1 N7F       0.109000
     48 H151         1.7640     0.0380     9.5970 hc         1 N7F       0.074000
     49 H152         2.9670     0.0820     8.2950 hc         1 N7F       0.074000
     50 H181         1.7720    -3.2080     7.9020 hn         1 N7F       0.130000
     51 H182         1.7290    -2.5580     9.4010 DU         1 N7F       0.203500
     52 H161         1.6660     2.1690     8.3100 hc         1 N7F       0.081000
     53 H162         0.1590     1.2450     8.1770 hc         1 N7F       0.081000
     54 H21         -1.5200    -1.5580     6.3900 ha         1 N7F       0.118000
     55 H25         -2.9480    -1.5570     2.3650 ha         1 N7F       0.118000
     56 H22         -2.2970    -3.8830     6.6650 ha         1 N7F       0.105000
     57 H23         -3.3950    -5.0450     4.7880 ha         1 N7F       0.111000
     58 H24         -3.7220    -3.8830     2.6390 ha         1 N7F       0.105000
     59 H30         -2.9740    -2.4820    -6.4740 ha         1 N7F       0.110000
     60 H31         -2.2850    -4.2740    -5.1380 ha         1 N7F       0.122000
     61 H37          0.0590    -2.2980    -0.0830 ha         1 N7F       0.108000
     62 H36         -0.3230    -4.5880    -0.8490 h4         1 N7F       0.116000
     63 H28         -1.9620     0.4420    -3.9310 ha         1 N7F       0.129000
     64 H183         2.0660    -2.3360     9.4480 DU         1 N7F       0.203500
     65 H29         -2.7760    -0.2190    -5.8150 ha         1 N7F       0.110000
@<TRIPOS>BOND
     1     1     2 1   
     2     1     4 1   
     3     1    27 1   
     4     2     3 1   
     5     2    38 1   
     6     3     6 1   
     7     4     5 1   
     8     4    26 1   
     9     5     6 1   
    10     5     9 1   
    11     6     7 1   
    12     7     8 1   
    13     7    10 1   
    14     8     9 1   
    15     8    12 1   
    16     9    19 1   
    17    10    11 1   
    18    12    13 1   
    19    12    17 1   
    20    13    14 1   
    21    13    43 1   
    22    13    44 1   
    23    14    15 1   
    24    14    18 1   
    25    14    47 1   
    26    15    16 1   
    27    15    48 1   
    28    15    49 1   
    29    16    17 1   
    30    16    52 1   
    31    16    53 1   
    32    17    45 1   
    33    17    46 1   
    34    18    50 1   
    35    18    51 1   
    36    18    64 1   
    37    19    20 1   
    38    19    41 1   
    39    19    42 1   
    40    20    21 1   
    41    20    25 1   
    42    21    22 1   
    43    21    54 1   
    44    22    23 1   
    45    22    56 1   
    46    23    24 1   
    47    23    57 1   
    48    24    25 1   
    49    24    58 1   
    50    25    55 1   
    51    27    32 1   
    52    27    39 1   
    53    27    40 1   
    54    28    29 1   
    55    28    33 1   
    56    28    63 1   
    57    29    30 1   
    58    29    65 1   
    59    30    31 1   
    60    30    59 1   
    61    31    34 1   
    62    31    60 1   
    63    32    33 1   
    64    32    37 1   
    65    33    34 1   
    66    34    35 1   
    67    35    36 1   
    68    36    37 1   
    69    36    62 1   
    70    37    61 1   
    71    51    64 1   
@<TRIPOS>SUBSTRUCTURE
     1 N7F         1 TEMP              0 ****  ****    0 ROOT
