@<TRIPOS>MOLECULE
N7G
   51    50     1     0     0
SMALL
bcc


@<TRIPOS>ATOM
      1 C06          0.0000     0.0000     0.0000 c3         1 N7G       0.000900
      2 C07          1.5300     0.0000     0.0000 c3         1 N7G      -0.072000
      3 C08          2.0400     0.0000     1.4420 c3         1 N7G       0.000900
      4 C09          2.0400    -1.2500    -0.7210 c3         1 N7G       0.000900
      5 C10          2.0400     1.2480    -0.7220 c3         1 N7G       0.132100
      6 O11          1.4640     2.4130    -0.1250 oh         1 N7G      -0.549800
      7 C12          3.5410     1.3170    -0.6090 c          1 N7G       0.544100
      8 O13          4.0580     2.1220     0.1360 o          1 N7G      -0.612100
      9 N14          4.3110     0.4820    -1.3350 ns         1 N7G      -0.231900
     10 C15          5.7690     0.6190    -1.3080 c3         1 N7G       0.065000
     11 C16          6.3980    -0.4420    -2.2130 c3         1 N7G      -0.111400
     12 C17          7.8980    -0.3010    -2.1850 c          1 N7G       0.573100
     13 O18          8.4130     0.5630    -1.5080 o          1 N7G      -0.635100
     14 N19          8.6670    -1.1360    -2.9110 ns         1 N7G      -0.201900
     15 C20         10.1250    -0.9990    -2.8840 c3         1 N7G       0.050000
     16 C21         10.7550    -2.0610    -3.7880 c3         1 N7G      -0.041400
     17 C22         12.2780    -1.9170    -3.7600 c3         1 N7G      -0.018400
     18 C23         12.9070    -2.9790    -4.6640 c3         1 N7G      -0.035400
     19 C24         14.4300    -2.8360    -4.6360 c3         1 N7G       0.211400
     20 O25         15.0180    -3.8270    -5.4810 os         1 N7G      -0.419600
     21 C26         16.4450    -3.7800    -5.5250 c3         1 N7G       0.255700
     22 H1          -0.3610    -0.9340     0.4140 hc         1 N7G       0.010811
     23 H2          -0.3610     0.1080    -1.0160 hc         1 N7G       0.010811
     24 H3          -0.3610     0.8260     0.6010 hc         1 N7G       0.010811
     25 H4           1.8500     0.9670     1.8930 hc         1 N7G       0.010811
     26 H5           3.1050    -0.1980     1.4490 hc         1 N7G       0.010811
     27 H6           1.5270    -0.7690     2.0070 hc         1 N7G       0.010811
     28 H7           2.0270    -1.0810    -1.7910 hc         1 N7G       0.010811
     29 H8           1.4010    -2.0910    -0.4810 hc         1 N7G       0.010811
     30 H9           3.0530    -1.4640    -0.4010 hc         1 N7G       0.010811
     31 H10          1.7580     1.2010    -1.7670 h1         1 N7G       0.003700
     32 H11          1.3200     3.0670    -0.7890 ho         1 N7G       0.388000
     33 H12          3.8840    -0.1960    -1.9350 hn         1 N7G       0.179500
     34 H13          6.1250     0.4870    -0.2940 h1         1 N7G       0.042200
     35 H14          6.0450     1.6050    -1.6620 h1         1 N7G       0.042200
     36 H15          6.0420    -0.3090    -3.2270 hc         1 N7G       0.026700
     37 H16          6.1210    -1.4280    -1.8590 hc         1 N7G       0.026700
     38 H17          8.2420    -1.8500    -3.4690 hn         1 N7G       0.172500
     39 H18         10.4020    -0.0130    -3.2390 h1         1 N7G       0.028700
     40 H19         10.4820    -1.1310    -1.8700 h1         1 N7G       0.028700
     41 H20         10.4790    -3.0460    -3.4340 hc         1 N7G       0.017700
     42 H21         10.3980    -1.9290    -4.8020 hc         1 N7G       0.017700
     43 H22         12.6340    -2.0490    -2.7460 hc         1 N7G       0.018700
     44 H23         12.5540    -0.9310    -4.1140 hc         1 N7G       0.018700
     45 H24         12.5510    -2.8460    -5.6780 hc         1 N7G       0.022700
     46 H25         12.6310    -3.9640    -4.3090 hc         1 N7G       0.022700
     47 H26         14.7870    -2.9680    -3.6220 h1         1 N7G      -0.009300
     48 H27         14.7070    -1.8500    -4.9900 h1         1 N7G      -0.009300
     49 H28         16.8430    -3.9350    -4.5300 h1         1 N7G      -0.013633
     50 H29         16.8120    -4.5570    -6.1850 h1         1 N7G      -0.013633
     51 H30         16.7630    -2.8120    -5.8940 h1         1 N7G      -0.013633
@<TRIPOS>BOND
     1     1     2 1   
     2     1    22 1   
     3     1    23 1   
     4     1    24 1   
     5     2     3 1   
     6     2     4 1   
     7     2     5 1   
     8     3    25 1   
     9     3    26 1   
    10     3    27 1   
    11     4    28 1   
    12     4    29 1   
    13     4    30 1   
    14     5     6 1   
    15     5     7 1   
    16     5    31 1   
    17     6    32 1   
    18     7     8 2   
    19     7     9 1   
    20     9    10 1   
    21     9    33 1   
    22    10    11 1   
    23    10    34 1   
    24    10    35 1   
    25    11    12 1   
    26    11    36 1   
    27    11    37 1   
    28    12    13 2   
    29    12    14 1   
    30    14    15 1   
    31    14    38 1   
    32    15    16 1   
    33    15    39 1   
    34    15    40 1   
    35    16    17 1   
    36    16    41 1   
    37    16    42 1   
    38    17    18 1   
    39    17    43 1   
    40    17    44 1   
    41    18    19 1   
    42    18    45 1   
    43    18    46 1   
    44    19    20 1   
    45    19    47 1   
    46    19    48 1   
    47    20    21 1   
    48    21    49 1   
    49    21    50 1   
    50    21    51 1   
@<TRIPOS>SUBSTRUCTURE
     1 N7G         1 TEMP              0 ****  ****    0 ROOT
