@<TRIPOS>MOLECULE
molecule
   25    25     1     0     0
SMALL
bcc


@<TRIPOS>ATOM
      1 C1           0.0000     0.0000     0.0000 ca         1 N7I      -0.144000
      2 O1          -4.8230     0.9560    -0.8870 oh         1 N7I      -0.605800
      3 C2           1.2990     0.0030     4.7860 c3         1 N7I       0.125700
      4 O2           3.4360     0.0000     1.1950 oh         1 N7I      -0.503100
      5 C3           1.3800     0.0000     0.0000 ca         1 N7I      -0.132000
      6 O3           2.0710     0.0010     3.5840 os         1 N7I      -0.313900
      7 C4           2.0760     0.0000     1.1990 ca         1 N7I       0.080100
      8 C5           1.3860     0.0020     2.4090 ca         1 N7I       0.126100
      9 C6           0.0030     0.0030     2.4160 ca         1 N7I      -0.200000
     10 C7          -0.6970     0.0020     1.2090 ca         1 N7I      -0.028800
     11 C8          -2.1750     0.0040     1.2110 ce         1 N7I      -0.114200
     12 C9          -2.8400     0.0020     0.0640 c2         1 N7I      -0.155200
     13 C10         -4.3470     0.0040     0.0650 c3         1 N7I       0.174600
     14 H1          -0.5420    -0.0000    -0.9380 ha         1 N7I       0.139000
     15 HO1         -5.7640     0.9060    -0.9390 ho         1 N7I       0.403000
     16 H2           0.6720    -0.8800     4.8140 h1         1 N7I       0.041033
     17 H2A          0.6770     0.8890     4.8140 h1         1 N7I       0.041033
     18 H2B          1.9640     0.0010     5.6420 h1         1 N7I       0.041033
     19 HO2          3.7500    -0.8410     0.9070 ho         1 N7I       0.415000
     20 H3           1.9210    -0.0020    -0.9390 ha         1 N7I       0.143000
     21 H6          -0.5350     0.0050     3.3560 ha         1 N7I       0.140000
     22 H8          -2.7150     0.0060     2.1500 ha         1 N7I       0.128000
     23 H9          -2.2990     0.0010    -0.8750 ha         1 N7I       0.142000
     24 H10         -4.7070     0.2690     1.0520 h1         1 N7I       0.026700
     25 H10A        -4.7090    -0.9820    -0.1980 h1         1 N7I       0.026700
@<TRIPOS>BOND
     1     1     5 ar
     2     1    10 ar
     3     2    13 1
     4     3     6 1
     5     4     7 1
     6     5     7 ar
     7     6     8 1
     8     7     8 ar
     9     8     9 ar
    10     9    10 ar
    11    10    11 1
    12    11    12 2
    13    12    13 1
    14     1    14 1
    15     2    15 1
    16     3    16 1
    17     3    17 1
    18     3    18 1
    19     4    19 1
    20     5    20 1
    21     9    21 1
    22    11    22 1
    23    12    23 1
    24    13    24 1
    25    13    25 1
@<TRIPOS>SUBSTRUCTURE
     1 N7I         1 TEMP              0 ****  ****    0 ROOT
