@<TRIPOS>MOLECULE
N7I
   25    25     1     0     0
SMALL
bcc


@<TRIPOS>ATOM
      1 C1         -0.4680   -0.0720    0.0520 ca        1 N7I     -0.111000
      2 O1         -3.4200    0.0750   -1.5120 oh        1 N7I     -0.597800
      3 C2          1.4610   -0.3870    4.6830 c3        1 N7I      0.121700
      4 O2          2.7880    1.2090    1.0850 oh        1 N7I     -0.495100
      5 C3          0.7950    0.5120    0.0070 ca        1 N7I     -0.143000
      6 O3          1.8550    0.2940    3.4980 os        1 N7I     -0.349900
      7 C4          1.5520    0.6160    1.1800 ca        1 N7I      0.116100
      8 C5          1.0290    0.1210    2.3980 ca        1 N7I      0.037100
      9 C6         -0.2330   -0.4690    2.4330 ca        1 N7I     -0.149000
     10 C7         -0.9920   -0.5600    1.2550 ca        1 N7I     -0.071800
     11 C8         -2.3000   -1.1990    1.3060 ce        1 N7I     -0.091200
     12 C9         -3.4090   -0.7940    0.6800 c2        1 N7I     -0.159200
     13 C10        -3.5390    0.4420   -0.1420 c3        1 N7I      0.157600
     14 H1         -1.0640   -0.1630   -0.8730 ha        1 N7I      0.157000
     15 HO1        -3.5550    0.8820   -2.0210 ho        1 N7I      0.399000
     16 H2          2.3100   -0.1960    5.3880 h1        1 N7I      0.045367
     17 H2A         0.5130    0.0470    5.0830 h1        1 N7I      0.045367
     18 H2B         1.3420   -1.4810    4.4930 h1        1 N7I      0.045367
     19 HO2         3.2050    1.1770    1.9590 ho        1 N7I      0.436000
     20 H3          1.2120    0.8920   -0.9360 ha        1 N7I      0.153000
     21 H6         -0.6430   -0.8600    3.3750 ha        1 N7I      0.139000
     22 H8         -2.3370   -2.1040    1.9400 ha        1 N7I      0.126000
     23 H9         -4.3350   -1.3870    0.7580 ha        1 N7I      0.129000
     24 H10        -4.5450    0.9120    0.0360 h1        1 N7I      0.030200
     25 H10A       -2.7400    1.1900    0.1170 h1        1 N7I      0.030200
@<TRIPOS>BOND
     1    1    5 ar  
     2    1   10 ar  
     3    1   14 1   
     4    2   13 1   
     5    2   15 1   
     6    3    6 1   
     7    3   16 1   
     8    3   17 1   
     9    3   18 1   
    10    4    7 1   
    11    4   19 1   
    12    5    7 ar  
    13    5   20 1   
    14    6    8 1   
    15    7    8 ar  
    16    8    9 ar  
    17    9   10 ar  
    18    9   21 1   
    19   10   11 1   
    20   11   12 2   
    21   11   22 1   
    22   12   13 1   
    23   12   23 1   
    24   13   24 1   
    25   13   25 1   
@<TRIPOS>SUBSTRUCTURE
     1 N7I         1 TEMP              0 ****  ****    0 ROOT
