@<TRIPOS>MOLECULE
molecule
   64    67     1     0     0
SMALL
bcc


@<TRIPOS>ATOM
      1 C4           0.0000     0.0000     0.0000 c3         1 N7N       0.036700
      2 C5           1.5070     0.0000     0.0000 c          1 N7N       0.727500
      3 C6           0.6300     0.1610     3.0210 c3         1 N7N      -0.126400
      4 C7           2.0550     0.3710     2.4980 c3         1 N7N       0.116700
      5 C9           3.6960    -0.4390     1.0140 c3         1 N7N       0.029700
      6 C10          4.2560    -0.4930     2.4390 c3         1 N7N      -0.097400
      7 C11          2.9980    -0.5310     3.3120 c3         1 N7N      -0.098400
      8 C12          3.7740    -1.8140     0.3980 c          1 N7N       0.659100
      9 C1          -0.5080     1.4500     0.1970 c3         1 N7N      -0.082400
     10 C2           0.1910     2.0690     1.4120 c3         1 N7N      -0.111400
     11 C3          -0.2050     1.4010     2.7170 c3         1 N7N      -0.097400
     12 N8           2.2810     0.0000     1.1070 n          1 N7N      -0.483800
     13 N13         -0.6530    -0.9890     0.7980 ns         1 N7N      -0.552900
     14 O14          2.0580     0.0280    -1.0870 o          1 N7N      -0.590500
     15 O16         -0.1780    -2.5840    -0.6710 o          1 N7N      -0.554100
     16 C17         -1.3720    -3.2940     1.2080 ca         1 N7N       0.415800
     17 N18         -2.0330    -2.9380     2.2960 nb         1 N7N      -0.703000
     18 C19         -2.6540    -3.8110     3.0700 ca         1 N7N       0.398200
     19 C20         -2.6560    -5.1500     2.7970 ca         1 N7N      -0.227300
     20 C21         -1.3180    -4.6570     0.8350 ca         1 N7N      -0.126300
     21 C22         -1.9740    -5.6100     1.6570 ca         1 N7N      -0.019000
     22 C23         -1.9350    -6.9680     1.3070 ca         1 N7N      -0.147000
     23 C24         -1.2670    -7.3510     0.1840 ca         1 N7N      -0.102000
     24 C25         -0.6230    -6.4150    -0.6230 ca         1 N7N      -0.140000
     25 C26         -0.6320    -5.0890    -0.3070 ca         1 N7N      -0.082000
     26 O27          2.7580    -2.3830     0.0590 o          1 N7N      -0.618100
     27 N28          4.9700    -2.4100     0.2270 ns         1 N7N      -0.529900
     28 C29          4.8380    -4.8020     0.7160 c3         1 N7N       0.111400
     29 O30          7.7040    -2.9690    -2.8880 o          1 N7N      -0.845300
     30 C32          6.4170    -3.9390    -1.0180 c3         1 N7N      -0.198400
     31 O33          5.6740    -2.2160    -2.4430 o          1 N7N      -0.845300
     32 C34          5.0440    -3.7460    -0.3720 c3         1 N7N       0.141700
     33 O35          5.9200    -4.7460     1.6470 oh         1 N7N      -0.611800
     34 H1          -0.2720    -0.2490    -1.0190 h1         1 N7N       0.093700
     35 H2           0.7110     0.1110     4.1000 hc         1 N7N       0.074200
     36 H3           0.2070    -0.6390     2.4260 hc         1 N7N       0.074200
     37 H4           2.3390     1.4070     2.6420 h1         1 N7N       0.038700
     38 H5           4.2640     0.2700     0.4220 h1         1 N7N       0.088700
     39 H6           4.8450    -1.3910     2.5820 hc         1 N7N       0.057700
     40 H7           4.8400     0.3940     2.6520 hc         1 N7N       0.057700
     41 H8           3.1920    -0.1070     4.2900 hc         1 N7N       0.053700
     42 H9           2.6050    -1.5380     3.3840 hc         1 N7N       0.053700
     43 H10         -1.5780     1.4380     0.3650 hc         1 N7N       0.054700
     44 H11         -0.2810     2.0350    -0.6860 hc         1 N7N       0.054700
     45 H12          1.2630     1.9740     1.2830 hc         1 N7N       0.052700
     46 H13         -0.0680     3.1190     1.4660 hc         1 N7N       0.052700
     47 H14         -1.2140     1.0390     2.5620 hc         1 N7N       0.045200
     48 H15          0.0430     2.1140     3.4940 hc         1 N7N       0.045200
     49 H16         -1.1380    -0.7180     1.6300 hn         1 N7N       0.333500
     50 H17         -3.1780    -3.4530     3.9480 h4         1 N7N       0.013100
     51 H18         -3.1730    -5.8440     3.4480 ha         1 N7N       0.133000
     52 H19         -2.4320    -7.7060     1.9260 ha         1 N7N       0.127000
     53 H20         -1.2360    -8.4000    -0.0870 ha         1 N7N       0.124000
     54 H21         -0.1070    -6.7460    -1.5160 ha         1 N7N       0.140000
     55 H22         -0.1260    -4.3730    -0.9440 ha         1 N7N       0.214000
     56 H23          5.8090    -1.9270     0.4790 hn         1 N7N       0.316500
     57 H24          3.9050    -4.6110     1.2330 h1         1 N7N       0.017200
     58 H25          4.8030    -5.7850     0.2620 h1         1 N7N       0.017200
     59 H27          7.1920    -3.7510    -0.2840 hc         1 N7N       0.043200
     60 H28          6.5050    -4.9560    -1.3820 hc         1 N7N       0.043200
     61 H29          4.2720    -3.8470    -1.1250 h1         1 N7N       0.101700
     62 H30          5.8340    -5.4470     2.2720 ho         1 N7N       0.378000
     63 C31          6.5700    -2.9780    -2.1680 c          1 N7N       0.880600
     64 C15         -0.6950    -2.2700     0.3820 c          1 N7N       0.571600
@<TRIPOS>BOND
     1    24    23 ar
     2    24    25 ar
     3    23    22 ar
     4    25    20 ar
     5    22    21 ar
     6    15    64 2
     7    20    21 ar
     8    20    16 ar
     9    21    19 ar
    10    64    16 1
    11    64    13 1
    12    16    17 ar
    13    19    18 ar
    14     7     4 1
    15     7     6 1
    16     4     3 1
    17     4    12 1
    18    17    18 ar
    19    13     1 1
    20     6     5 1
    21     1     2 1
    22     1     9 1
    23     3    11 1
    24    11    10 1
    25    12     2 1
    26    12     5 1
    27     2    14 2
    28     5     8 1
    29     9    10 1
    30     8    26 2
    31     8    27 1
    32    27    32 1
    33    32    28 1
    34    32    30 1
    35    33    28 1
    36    30    63 1
    37    63    31 1
    38    63    29 1
    39     1    34 1
    40     3    35 1
    41     3    36 1
    42     4    37 1
    43     5    38 1
    44     6    39 1
    45     6    40 1
    46     7    41 1
    47     7    42 1
    48     9    43 1
    49     9    44 1
    50    10    45 1
    51    10    46 1
    52    11    47 1
    53    11    48 1
    54    13    49 1
    55    18    50 1
    56    19    51 1
    57    22    52 1
    58    23    53 1
    59    24    54 1
    60    25    55 1
    61    27    56 1
    62    28    57 1
    63    28    58 1
    64    30    59 1
    65    30    60 1
    66    32    61 1
    67    33    62 1
@<TRIPOS>SUBSTRUCTURE
     1 N7N         1 TEMP              0 ****  ****    0 ROOT
