@<TRIPOS>MOLECULE
molecule
   42    44     1     0     0
SMALL
bcc


@<TRIPOS>ATOM
      1 C10          0.0000     0.0000     0.0000 ce         1 N7O      -0.260200
      2 C13         -2.8200    -0.0000     2.4780 ca         1 N7O      -0.139000
      3 C20          3.0770     1.8780    -3.9010 cc         1 N7O      -0.041400
      4 C22          4.5610     3.8160    -3.2310 ca         1 N7O      -0.021100
      5 C24          6.3510     4.9060    -2.0550 ca         1 N7O      -0.133000
      6 C28          4.8810     2.6070    -2.6060 ca         1 N7O      -0.045800
      7 P02          3.4390    -1.0460    -3.7170 p5         1 N7O       0.986400
      8 O03          1.9930    -0.7810    -3.8900 o          1 N7O      -0.796000
      9 O04          4.1900    -0.8570    -5.1300 o          1 N7O      -0.796000
     10 C05          4.1300     0.1230    -2.5020 c3         1 N7O      -0.260700
     11 C06          3.3770     0.0000    -1.2020 c          1 N7O       0.679100
     12 O07          3.9840    -0.0980    -0.1560 o          1 N7O      -0.621100
     13 N08          2.0290    -0.0000    -1.2020 ns         1 N7O      -0.477100
     14 C09          1.3350     0.0000     0.0000 c2         1 N7O       0.044600
     15 C11         -0.7380    -0.0000     1.2790 ca         1 N7O       0.015200
     16 C12         -2.1350     0.0000     1.2810 ca         1 N7O      -0.129000
     17 C14         -2.1260    -0.0010     3.6770 ca         1 N7O       0.061900
     18 F15         -2.8030    -0.0010     4.8470 f          1 N7O      -0.143900
     19 C16         -0.7390     0.0000     3.6820 ca         1 N7O       0.106900
     20 F17         -0.0680    -0.0000     4.8540 f          1 N7O      -0.137900
     21 C18         -0.0420    -0.0000     2.4890 ca         1 N7O      -0.168000
     22 C19          3.9990     1.5310    -3.0260 cd         1 N7O      -0.051400
     23 S21          3.1900     3.5800    -4.3080 ss         1 N7O      -0.134500
     24 C23          5.3060     4.9630    -2.9460 ca         1 N7O      -0.092000
     25 C25          6.6720     3.7070    -1.4320 ca         1 N7O       0.018400
     26 Cl26         7.9940     3.6480    -0.3080 cl         1 N7O      -0.135400
     27 C27          5.9590     2.5760    -1.6950 ca         1 N7O      -0.075000
     28 H10         -0.5420    -0.0000    -0.9380 ha         1 N7O       0.147000
     29 H13         -3.9030     0.0000     2.4810 ha         1 N7O       0.141000
     30 H20          2.3420     1.1980    -4.3160 h4         1 N7O       0.239000
     31 H24          6.9260     5.7980    -1.8380 ha         1 N7O       0.132000
     32 H01          2.8610    -3.0620    -2.5300 hc         1 N7O       0.051700
     33 H01A         3.7130    -3.4190    -4.0390 hc         1 N7O       0.051700
     34 H01B         4.6140    -2.8470    -2.6280 hc         1 N7O       0.051700
     35 H05          5.1760    -0.1050    -2.3360 hc         1 N7O       0.102700
     36 HN08         1.5300     0.0440    -2.0680 hn         1 N7O       0.378500
     37 H09          1.8770    -0.0000     0.9380 h4         1 N7O       0.161000
     38 H12         -2.6790     0.0000     0.3450 ha         1 N7O       0.143000
     39 H18          1.0410     0.0010     2.4920 ha         1 N7O       0.158000
     40 H23          5.0600     5.9010    -3.4290 ha         1 N7O       0.129000
     41 H27          6.2210     1.6480    -1.2020 ha         1 N7O       0.158000
     42 C01          3.6810    -2.7680    -3.1740 c3         1 N7O      -0.295300
@<TRIPOS>BOND
     1     1    14 2
     2     1    15 1
     3     1    28 1
     4     2    16 ar
     5     2    17 ar
     6     2    29 1
     7     3    22 2
     8     3    23 1
     9     3    30 1
    10     4     6 ar
    11     4    23 1
    12     4    24 ar
    13     5    24 ar
    14     5    25 ar
    15     5    31 1
    16     6    22 1
    17     6    27 ar
    18    42     7 1
    19    42    32 1
    20    42    33 1
    21    42    34 1
    22     7     8 1
    23     7     9 1
    24     7    10 1
    25    10    11 1
    26    10    22 1
    27    10    35 1
    28    11    12 2
    29    11    13 1
    30    13    14 1
    31    13    36 1
    32    14    37 1
    33    15    16 ar
    34    15    21 ar
    35    16    38 1
    36    17    18 1
    37    17    19 ar
    38    19    20 1
    39    19    21 ar
    40    21    39 1
    41    24    40 1
    42    25    26 1
    43    25    27 ar
    44    27    41 1
@<TRIPOS>SUBSTRUCTURE
     1 N7O         1 TEMP              0 ****  ****    0 ROOT
