@<TRIPOS>MOLECULE
N7O
   42    46     1     0     0
SMALL
bcc


@<TRIPOS>ATOM
      1 C10          0.0000     0.0000     0.0000 c2         1 N7O      -0.575000
      2 C13         -2.8200    -0.0000     2.4780 c2         1 N7O      -0.091000
      3 C20          3.0770     1.8780    -3.9010 c2         1 N7O      -0.227000
      4 C22          4.5610     3.8160    -3.2310 ca         1 N7O      -0.218000
      5 C24          6.3510     4.9060    -2.0550 ca         1 N7O      -0.115000
      6 C28          4.8810     2.6070    -2.6060 ca         1 N7O      -0.037000
      7 P02          3.4390    -1.0460    -3.7170 p5         1 N7O       1.188000
      8 O03          1.9930    -0.7810    -3.8900 o          1 N7O      -0.615000
      9 O04          4.1900    -0.8570    -5.1300 o          1 N7O      -0.615000
     10 C05          4.1300     0.1230    -2.5020 c3         1 N7O      -0.496000
     11 C06          3.3770     0.0000    -1.2020 c2         1 N7O       0.232000
     12 O07          3.9840    -0.0980    -0.1560 o          1 N7O      -0.330000
     13 N08          2.0290    -0.0000    -1.2020 ny         1 N7O       0.204000
     14 C09          1.3350     0.0000     0.0000 c2         1 N7O      -0.157000
     15 C11         -0.7380    -0.0000     1.2790 c3         1 N7O       0.166000
     16 C12         -2.1350     0.0000     1.2810 c2         1 N7O      -0.143000
     17 C14         -2.1260    -0.0010     3.6770 c2         1 N7O      -0.033000
     18 F15         -2.8030    -0.0010     4.8470 f          1 N7O      -0.098000
     19 C16         -0.7390     0.0000     3.6820 c2         1 N7O       0.072000
     20 F17         -0.0680    -0.0000     4.8540 f          1 N7O      -0.094000
     21 C18         -0.0420    -0.0000     2.4890 c2         1 N7O      -0.225000
     22 C19          3.9990     1.5310    -3.0260 c2         1 N7O      -0.056000
     23 S21          3.1900     3.5800    -4.3080 ss         1 N7O       0.218000
     24 C23          5.3060     4.9630    -2.9460 ca         1 N7O      -0.050000
     25 C25          6.6720     3.7070    -1.4320 ca         1 N7O      -0.114000
     26 Cl26         7.9940     3.6480    -0.3080 cl         1 N7O       0.025000
     27 C27          5.9590     2.5760    -1.6950 ca         1 N7O      -0.058000
     28 H10         -0.1460     0.8750     0.6220 DU         1 N7O       0.179000
     29 H13         -3.9030     0.0000     2.4810 ha         1 N7O       0.109000
     30 H20          2.3420     1.1980    -4.3160 h4         1 N7O       0.228000
     31 H24          6.9260     5.7980    -1.8380 ha         1 N7O       0.107000
     32 H01          3.7130    -3.4190    -4.0390 hc         1 N7O       0.058000
     33 H01A         4.6140    -2.8470    -2.6280 hc         1 N7O       0.058000
     34 H01B         2.8610    -3.0620    -2.5300 hc         1 N7O       0.058000
     35 H05          5.1760    -0.1050    -2.3360 hc         1 N7O       0.116000
     36 HN08         1.5290    -0.0330    -2.0690 hn         1 N7O       0.151000
     37 H09          1.4820     0.8750    -0.6220 DU         1 N7O       0.212000
     38 H12         -2.6790     0.0000     0.3450 ha         1 N7O       0.129000
     39 H18          1.0410     0.0010     2.4920 ha         1 N7O       0.154000
     40 H23          5.0600     5.9010    -3.4290 ha         1 N7O       0.104000
     41 H27          6.2210     1.6480    -1.2010 ha         1 N7O       0.128000
     42 C01          3.6810    -2.7680    -3.1740 c3         1 N7O      -0.551000
@<TRIPOS>BOND
     1     1    14 1   
     2     1    15 1   
     3     1    28 1   
     4     2    16 1   
     5     2    17 1   
     6     2    29 1   
     7     3    22 1   
     8     3    23 1   
     9     3    30 1   
    10     4     6 1   
    11     4    23 1   
    12     4    24 1   
    13     5    24 1   
    14     5    25 1   
    15     5    31 1   
    16     6    22 1   
    17     6    27 1   
    18     7     8 1   
    19     7     9 1   
    20     7    10 1   
    21     7    42 1   
    22    10    11 1   
    23    10    22 1   
    24    10    35 1   
    25    11    12 1   
    26    11    13 1   
    27    13    14 1   
    28    13    36 1   
    29    13    37 1   
    30    14    37 1   
    31    15    16 1   
    32    15    21 1   
    33    15    28 1   
    34    16    38 1   
    35    17    18 1   
    36    17    19 1   
    37    19    20 1   
    38    19    21 1   
    39    21    39 1   
    40    24    40 1   
    41    25    26 1   
    42    25    27 1   
    43    27    41 1   
    44    32    42 1   
    45    33    42 1   
    46    34    42 1   
@<TRIPOS>SUBSTRUCTURE
     1 N7O         1 TEMP              0 ****  ****    0 ROOT
