@<TRIPOS>MOLECULE
molecule
   67    71     1     0     0
SMALL
bcc


@<TRIPOS>ATOM
      1 F1           0.0000     0.0000     0.0000 f          1 N7R      -0.124900
      2 C2           1.3510     0.0000     0.0000 ca         1 N7R       0.101900
      3 C3           2.0440     0.0000     1.1980 ca         1 N7R      -0.144000
      4 C4           3.4260    -0.0010     1.1970 ca         1 N7R      -0.116000
      5 C5           4.1180    -0.0020    -0.0000 ca         1 N7R      -0.120000
      6 C6           3.4290    -0.0010    -1.1990 ca         1 N7R      -0.100300
      7 C7           4.1840    -0.0020    -2.5030 c3         1 N7R      -0.054400
      8 C9           5.0420    -1.2510    -2.5830 c3         1 N7R      -0.073400
      9 C10          5.7140    -1.4490    -3.9290 c3         1 N7R      -0.092400
     10 C11          6.7570    -0.3570    -4.1780 c3         1 N7R       0.071700
     11 N13          7.7650    -0.8470    -5.1230 ns         1 N7R      -0.581900
     12 C14          9.0040    -0.3170    -5.1210 c          1 N7R       0.799100
     13 O15          9.2590     0.6300    -4.4010 o          1 N7R      -0.662100
     14 N16          9.9590    -0.8350    -5.9180 n          1 N7R      -0.506800
     15 C17          9.6390    -1.9000    -6.8760 c3         1 N7R       0.119000
     16 C18         10.5930    -3.0760    -6.6450 c3         1 N7R      -0.121900
     17 C19         12.0380    -2.5780    -6.7200 c3         1 N7R       0.144700
     18 C20         12.2780    -1.5370    -5.6230 c3         1 N7R      -0.121900
     19 C21         11.3420    -0.3400    -5.8470 c3         1 N7R       0.119000
     20 N22         12.9540    -3.7050    -6.5310 n          1 N7R      -0.356000
     21 C23         13.0140    -4.5020    -5.4470 c          1 N7R       0.806500
     22 O24         12.3090    -4.3960    -4.4610 o          1 N7R      -0.656500
     23 N25         13.9710    -5.4320    -5.6200 ns         1 N7R      -0.521400
     24 C27         14.5570    -5.2350    -6.8640 ca         1 N7R       0.489200
     25 N28         15.5280    -5.8580    -7.5140 nb         1 N7R      -0.691000
     26 C29         15.9140    -5.4720    -8.7140 ca         1 N7R       0.430200
     27 C30         15.3200    -4.3960    -9.3460 ca         1 N7R      -0.252300
     28 C31         14.2980    -3.7100    -8.7040 ca         1 N7R      -0.094000
     29 C32         13.9090    -4.1420    -7.4440 ca         1 N7R      -0.119700
     30 C33          6.0570     0.8510    -4.7630 c          1 N7R       0.687500
     31 O34          6.2250     1.1420    -5.9280 o          1 N7R      -0.621500
     32 N35          5.2560     1.5970    -4.0010 n          1 N7R      -0.485800
     33 C36          4.5780     2.7600    -4.5780 c3         1 N7R       0.064000
     34 C37          3.2220     2.3320    -5.1420 c3         1 N7R       0.589900
     35 F38          3.4140     1.3640    -6.1340 f          1 N7R      -0.222967
     36 F39          2.4370     1.7970    -4.1140 f          1 N7R      -0.222967
     37 F40          2.5740     3.4440    -5.6930 f          1 N7R      -0.222967
     38 C41          5.0500     1.2580    -2.5830 c3         1 N7R       0.110000
     39 C42          2.0450    -0.0050    -1.2010 ca         1 N7R       0.107900
     40 F43          1.3700    -0.0110    -2.3710 f          1 N7R      -0.118900
     41 H3           1.5030     0.0010     2.1370 ha         1 N7R       0.153000
     42 H4           3.9680    -0.0010     2.1350 ha         1 N7R       0.143000
     43 H5           5.2020    -0.0020     0.0010 ha         1 N7R       0.142000
     44 H7           3.4810    -0.0010    -3.3270 hc         1 N7R       0.093700
     45 H9           4.4150    -2.1120    -2.3820 hc         1 N7R       0.052200
     46 H9A          5.8100    -1.1910    -1.8210 hc         1 N7R       0.052200
     47 H10          6.2010    -2.4160    -3.9450 hc         1 N7R       0.062200
     48 H10A         4.9640    -1.4090    -4.7100 hc         1 N7R       0.062200
     49 H11          7.2290    -0.0850    -3.2420 h1         1 N7R       0.094700
     50 HN13         7.5220    -1.5470    -5.7950 hn         1 N7R       0.321500
     51 H17          8.6170    -2.2270    -6.7260 h1         1 N7R       0.057450
     52 H17A         9.7620    -1.5270    -7.8860 h1         1 N7R       0.057450
     53 H18         10.4090    -3.5020    -5.6660 hc         1 N7R       0.071700
     54 H18A        10.4310    -3.8270    -7.4080 hc         1 N7R       0.071700
     55 H19         12.2110    -2.1240    -7.6880 h1         1 N7R       0.064700
     56 H20         13.3070    -1.2020    -5.6630 hc         1 N7R       0.071700
     57 H20A        12.0730    -1.9790    -4.6550 hc         1 N7R       0.071700
     58 H21         11.5990     0.1530    -6.7760 h1         1 N7R       0.057450
     59 H21A        11.4370     0.3550    -5.0210 h1         1 N7R       0.057450
     60 HN25        14.2190    -6.1460    -4.9630 hn         1 N7R       0.370500
     61 H29         16.7120    -6.0080    -9.2140 h4         1 N7R       0.031100
     62 H30         15.6480    -4.0910   -10.3320 ha         1 N7R       0.146000
     63 H31         13.8150    -2.8630    -9.1760 ha         1 N7R       0.142000
     64 H36          4.4290     3.5090    -3.8090 h1         1 N7R       0.095700
     65 H36A         5.1860     3.1740    -5.3730 h1         1 N7R       0.095700
     66 H41          4.5460     2.0770    -2.0840 h1         1 N7R       0.064200
     67 H41A         6.0070     1.0710    -2.1120 h1         1 N7R       0.064200
@<TRIPOS>BOND
     1     2     1 1
     2     3     2 ar
     3     2    39 ar
     4     4     3 ar
     5     3    41 1
     6     4     5 ar
     7     4    42 1
     8     5     6 ar
     9     5    43 1
    10     6     7 1
    11     6    39 ar
    12    38     7 1
    13     8     7 1
    14     7    44 1
    15     9     8 1
    16     8    45 1
    17     8    46 1
    18    10     9 1
    19     9    47 1
    20     9    48 1
    21    11    10 1
    22    10    30 1
    23    10    49 1
    24    12    11 1
    25    11    50 1
    26    13    12 2
    27    14    12 1
    28    15    14 1
    29    14    19 1
    30    15    16 1
    31    15    51 1
    32    15    52 1
    33    16    17 1
    34    16    53 1
    35    16    54 1
    36    20    17 1
    37    17    18 1
    38    17    55 1
    39    19    18 1
    40    18    56 1
    41    18    57 1
    42    19    58 1
    43    19    59 1
    44    21    20 1
    45    20    29 1
    46    22    21 2
    47    21    23 1
    48    23    24 1
    49    23    60 1
    50    24    29 ar
    51    24    25 ar
    52    25    26 ar
    53    26    27 ar
    54    26    61 1
    55    28    27 ar
    56    27    62 1
    57    29    28 ar
    58    28    63 1
    59    30    31 2
    60    30    32 1
    61    38    32 1
    62    32    33 1
    63    33    34 1
    64    33    64 1
    65    33    65 1
    66    35    34 1
    67    34    36 1
    68    34    37 1
    69    38    66 1
    70    38    67 1
    71    39    40 1
@<TRIPOS>SUBSTRUCTURE
     1 N7R         1 TEMP              0 ****  ****    0 ROOT
