@<TRIPOS>MOLECULE
molecule
   18    17     1     0     0
SMALL
bcc


@<TRIPOS>ATOM
      1 O01          0.0000     0.0000     0.0000 oh         1 N81      -0.584800
      2 C02          1.4290     0.0000     0.0000 c3         1 N81       0.058100
      3 C03          1.9400     0.0000     1.4420 c3         1 N81      -0.123700
      4 C04          1.3300    -1.1820     2.1990 c3         1 N81      -0.150400
      5 C05          1.9260    -1.2540     3.5810 c          1 N81       0.903600
      6 O06          2.7530    -0.4430     3.9250 o          1 N81      -0.902800
      7 O07          1.5380    -2.2180     4.4300 o          1 N81      -0.902800
      8 C08          1.5400     1.2880     2.1160 c          1 N81       0.933600
      9 O09          2.3900     2.3270     2.1370 o          1 N81      -0.905300
     10 O10          0.4550     1.3850     2.6370 o          1 N81      -0.905300
     11 C11          1.9320    -1.2310    -0.7100 c          1 N81       0.883600
     12 O12          3.2470    -1.3950    -0.9200 o          1 N81      -0.892800
     13 O13          1.1500    -2.0700    -1.0910 o          1 N81      -0.892800
     14 HO01        -0.3140     0.4520    -0.7660 ho         1 N81       0.333000
     15 H02          1.7900     0.8840    -0.5110 h1         1 N81       0.002700
     16 H03          3.0190    -0.0880     1.4430 hc         1 N81       0.074700
     17 H04          1.5420    -2.1000     1.6660 hc         1 N81       0.035700
     18 H04A         0.2580    -1.0470     2.2750 hc         1 N81       0.035700
@<TRIPOS>BOND
     1     2     1 1
     2     1    14 1
     3    11     2 1
     4     3     2 1
     5     2    15 1
     6     8     3 1
     7     3     4 1
     8     3    16 1
     9     5     4 1
    10     4    17 1
    11     4    18 1
    12     6     5 1
    13     5     7 1
    14    10     8 1
    15     9     8 1
    16    13    11 1
    17    11    12 1
@<TRIPOS>SUBSTRUCTURE
     1 N81         1 TEMP              0 ****  ****    0 ROOT
