@<TRIPOS>MOLECULE
molecule
   45    47     1     0     0
SMALL
bcc


@<TRIPOS>ATOM
      1 N1           0.0000     0.0000     0.0000 ns         1 N85      -0.578900
      2 C2          -0.6740     0.6700    -0.9560 c          1 N85       0.781100
      3 O2          -0.0660     1.2730    -1.8190 o          1 N85      -0.568100
      4 N3          -2.0220     0.6700    -0.9560 ns         1 N85      -0.593500
      5 C4          -2.6950     1.3400    -1.9120 c          1 N85       0.696300
      6 O4          -2.0880     1.9430    -2.7750 o          1 N85      -0.501100
      7 C5          -4.1650     1.3400    -1.9120 cc         1 N85      -0.148300
      8 C7          -4.9540     1.9750    -2.8190 cd         1 N85      -0.092200
      9 C8          -6.3020     1.7290    -2.4650 ca         1 N85      -0.120800
     10 C9          -7.5280     2.1170    -3.0210 ca         1 N85      -0.065000
     11 C1'          1.4650     0.0000     0.0000 c3         1 N85       0.333500
     12 C10         -8.6940     1.7110    -2.4410 ca         1 N85      -0.160000
     13 C11         -8.6790     0.9150    -1.3030 ca         1 N85      -0.094000
     14 C12         -7.4860     0.5200    -0.7390 ca         1 N85      -0.152000
     15 C16         -6.2830     0.9210    -1.3120 ca         1 N85      -0.024200
     16 C2'          1.9760     0.0000     1.4430 c3         1 N85       0.095100
     17 O2'          1.5490     1.1950     2.1000 oh         1 N85      -0.589800
     18 C3'          3.5060    -0.0620     1.4350 c3         1 N85       0.112100
     19 O3'          3.9880    -0.1360     2.7780 oh         1 N85      -0.607800
     20 N30         -4.9660     0.6900    -0.9930 na         1 N85      -0.180400
     21 C4'          3.9520    -1.3060     0.6600 c3         1 N85       0.100100
     22 O4'          5.3780    -1.3340     0.5840 oh         1 N85      -0.598800
     23 C5'          3.3650    -1.2550    -0.7530 c3         1 N85       0.155100
     24 O5'          1.9410    -1.1680    -0.6730 os         1 N85      -0.419600
     25 C6'          3.7560    -2.5240    -1.5130 c3         1 N85       0.152400
     26 O6'          3.3080    -2.4250    -2.8660 oh         1 N85      -0.592800
     27 HN1         -0.5000    -0.5220     0.6920 hn         1 N85       0.306500
     28 HN3         -2.5220     0.1450    -0.2660 hn         1 N85       0.304500
     29 H7          -4.6130     2.4940    -3.7070 ha         1 N85       0.175000
     30 H9          -7.5510     2.7380    -3.9080 ha         1 N85       0.135000
     31 H1'          1.8300     0.8830    -0.5100 h2         1 N85       0.100700
     32 H10         -9.6420     2.0130    -2.8720 ha         1 N85       0.132000
     33 H11         -9.6140     0.6010    -0.8550 ha         1 N85       0.132000
     34 H12         -7.4850    -0.1010     0.1490 ha         1 N85       0.126000
     35 H2'          1.5830    -0.8650     1.9640 h1         1 N85       0.049700
     36 HO2'         1.2390     0.9840     2.9650 ho         1 N85       0.411000
     37 H3'          3.9000     0.8240     0.9520 h1         1 N85       0.067700
     38 HO3'         4.5700     0.5870     2.9430 ho         1 N85       0.417000
     39 HN30        -4.6410     0.1400    -0.2220 hn         1 N85       0.291700
     40 H4'          3.5940    -2.1940     1.1670 h1         1 N85       0.053700
     41 HO4'         5.7140    -1.9550     1.2090 ho         1 N85       0.414000
     42 H5'          3.7500    -0.3850    -1.2700 h1         1 N85       0.072700
     43 H6'          3.2960    -3.3840    -1.0420 h1         1 N85       0.034700
     44 H6'A         4.8330    -2.6370    -1.4970 h1         1 N85       0.034700
     45 HO6'         3.6770    -3.1310    -3.3720 ho         1 N85       0.403000
@<TRIPOS>BOND
     1     1     2 1
     2     1    11 1
     3     2     3 2
     4     2     4 1
     5     4     5 1
     6     5     6 2
     7     5     7 1
     8     7     8 2
     9     7    20 1
    10     8     9 1
    11     9    10 ar
    12     9    15 ar
    13    10    12 ar
    14    11    16 1
    15    11    24 1
    16    12    13 ar
    17    13    14 ar
    18    14    15 ar
    19    15    20 1
    20    16    17 1
    21    16    18 1
    22    18    19 1
    23    18    21 1
    24    21    22 1
    25    21    23 1
    26    23    24 1
    27    23    25 1
    28    25    26 1
    29     1    27 1
    30     4    28 1
    31     8    29 1
    32    10    30 1
    33    11    31 1
    34    12    32 1
    35    13    33 1
    36    14    34 1
    37    16    35 1
    38    17    36 1
    39    18    37 1
    40    19    38 1
    41    20    39 1
    42    21    40 1
    43    22    41 1
    44    23    42 1
    45    25    43 1
    46    25    44 1
    47    26    45 1
@<TRIPOS>SUBSTRUCTURE
     1 N85         1 TEMP              0 ****  ****    0 ROOT
