@<TRIPOS>MOLECULE
N87
   43    45     1     0     0
SMALL
bcc


@<TRIPOS>ATOM
      1 O1         -0.5830   -0.5710    0.7670 o         1 N87     -0.810800
      2 C2          0.5440   -0.2110    0.3460 c         1 N87      0.907600
      3 O3          0.8490    0.0420   -0.8520 o         1 N87     -0.810800
      4 C4          1.7180   -0.0350    1.3900 c3        1 N87      0.036000
      5 O5          2.7520    0.7700    0.8300 oh        1 N87     -0.631800
      6 C6          2.2910   -1.3890    1.6740 c2        1 N87     -0.067200
      7 C7          2.3850   -1.9620    2.8880 ce        1 N87     -0.134400
      8 C8          1.8680   -1.2440    4.0990 c3        1 N87      0.170300
      9 O9          2.6010   -1.6070    5.2660 oh        1 N87     -0.618800
     10 C10         1.9400    0.2830    3.8860 c3        1 N87      0.104100
     11 O11         1.4280    0.9290    5.0460 oh        1 N87     -0.625800
     12 C12         1.1890    0.6790    2.6300 c3        1 N87     -0.098400
     13 C13         2.9160   -3.3170    3.0400 ca        1 N87     -0.016800
     14 C14         2.4070   -4.3560    2.2430 ca        1 N87     -0.074000
     15 C15         2.8940   -5.6600    2.3840 ca        1 N87     -0.180600
     16 C16         2.3420   -6.7400    1.5400 c         1 N87      0.589300
     17 C17         2.1160   -8.0580    2.1870 ca        1 N87     -0.159600
     18 C18         1.8400   -8.1590    3.5550 ca        1 N87     -0.084500
     19 C19         1.6090   -9.4080    4.1310 ca        1 N87     -0.150000
     20 C20         1.6560  -10.5600    3.3470 ca        1 N87     -0.116000
     21 C21         1.9270  -10.4640    1.9820 ca        1 N87     -0.150000
     22 C22         2.1500   -9.2180    1.4010 ca        1 N87     -0.084500
     23 C23         3.9150   -5.9290    3.3030 ca        1 N87     -0.115000
     24 C24         4.4410   -4.8970    4.0740 ca        1 N87     -0.158000
     25 C25         3.9440   -3.6000    3.9490 ca        1 N87     -0.080000
     26 O26         2.0770   -6.5740    0.3430 o         1 N87     -0.526100
     27 HO5         2.5900    0.8130   -0.1280 ho        1 N87      0.431000
     28 H6          2.6440   -1.9170    0.7720 ha        1 N87      0.135000
     29 H8          0.7910   -1.5450    4.2650 h1        1 N87      0.042700
     30 HO9         2.4500   -0.9000    5.9080 ho        1 N87      0.407000
     31 H10         3.0150    0.6100    3.8360 h1        1 N87      0.086700
     32 HO11        0.4670    0.8740    5.0020 ho        1 N87      0.398000
     33 H12         0.1000    0.4230    2.7420 hc        1 N87      0.067200
     34 H12A        1.2770    1.7860    2.4810 hc        1 N87      0.067200
     35 H14         1.6190   -4.1410    1.5020 ha        1 N87      0.164000
     36 H18         1.8040   -7.2470    4.1740 ha        1 N87      0.151000
     37 H19         1.3880   -9.4810    5.2050 ha        1 N87      0.129000
     38 H20         1.4760  -11.5440    3.8050 ha        1 N87      0.124000
     39 H21         1.9590  -11.3710    1.3620 ha        1 N87      0.129000
     40 H22         2.3450   -9.1270    0.3210 ha        1 N87      0.151000
     41 H23         4.3020   -6.9530    3.4080 ha        1 N87      0.124000
     42 H24         5.2510   -5.1040    4.7870 ha        1 N87      0.121000
     43 H25         4.3520   -2.7890    4.5740 ha        1 N87      0.156000
@<TRIPOS>BOND
     1    1    2 1   
     2    2    3 1   
     3    2    4 1   
     4    4    5 1   
     5    4    6 1   
     6    4   12 1   
     7    5   27 1   
     8    6    7 2   
     9    6   28 1   
    10    7    8 1   
    11    7   13 1   
    12    8    9 1   
    13    8   10 1   
    14    8   29 1   
    15    9   30 1   
    16   10   11 1   
    17   10   12 1   
    18   10   31 1   
    19   11   32 1   
    20   12   33 1   
    21   12   34 1   
    22   13   14 ar  
    23   13   25 ar  
    24   14   15 ar  
    25   14   35 1   
    26   15   16 1   
    27   15   23 ar  
    28   16   17 1   
    29   16   26 2   
    30   17   18 ar  
    31   17   22 ar  
    32   18   19 ar  
    33   18   36 1   
    34   19   20 ar  
    35   19   37 1   
    36   20   21 ar  
    37   20   38 1   
    38   21   22 ar  
    39   21   39 1   
    40   22   40 1   
    41   23   24 ar  
    42   23   41 1   
    43   24   25 ar  
    44   24   42 1   
    45   25   43 1   
@<TRIPOS>SUBSTRUCTURE
     1 N87         1 TEMP              0 ****  ****    0 ROOT
