@<TRIPOS>MOLECULE
molecule
   43    45     1     0     0
SMALL
bcc


@<TRIPOS>ATOM
      1 O1           0.0000     0.0000     0.0000 o          1 N87      -0.823800
      2 C2           1.2080     0.0000     0.0000 c          1 N87       0.868600
      3 O3           1.8790     0.0070    -1.1620 o          1 N87      -0.823800
      4 C4           1.9620     0.0000     1.3060 c3         1 N87       0.072000
      5 O5           3.1550     0.7730     1.1640 oh         1 N87      -0.624800
      6 C6           2.3240    -1.4110     1.6700 c2         1 N87      -0.051200
      7 C7           2.2200    -1.9010     2.8820 ce         1 N87      -0.137400
      8 C8           1.7180    -1.1190     4.0600 c3         1 N87       0.202300
      9 O9           2.5400    -1.3930     5.1970 oh         1 N87      -0.619800
     10 C10          1.7590     0.3800     3.7540 c3         1 N87       0.117100
     11 O11          1.0570     1.0970     4.7710 oh         1 N87      -0.625800
     12 C12          1.0850     0.6160     2.3980 c3         1 N87      -0.088400
     13 C13          2.6220    -3.3060     3.0990 ca         1 N87      -0.035800
     14 C14          1.9150    -4.3370     2.4860 ca         1 N87      -0.057000
     15 C15          2.3000    -5.6610     2.6980 ca         1 N87      -0.186600
     16 C16          1.5570    -6.7610     2.0510 c          1 N87       0.587300
     17 C17          1.8580    -8.1640     2.4040 ca         1 N87      -0.142600
     18 C18          2.2340    -8.4940     3.7080 ca         1 N87      -0.087000
     19 C19          2.5130    -9.8060     4.0310 ca         1 N87      -0.150500
     20 C20          2.4210   -10.7930     3.0650 ca         1 N87      -0.117000
     21 C21          2.0490   -10.4740     1.7720 ca         1 N87      -0.150500
     22 C22          1.7620    -9.1670     1.4360 ca         1 N87      -0.087000
     23 C23          3.3930    -5.9440     3.5220 ca         1 N87      -0.118000
     24 C24          4.0890    -4.9160     4.1270 ca         1 N87      -0.161000
     25 C25          3.7150    -3.6030     3.9170 ca         1 N87      -0.072000
     26 O26          0.6970    -6.5130     1.2280 o          1 N87      -0.519100
     27 HO5          3.1280     1.2470     0.3490 ho         1 N87       0.425000
     28 H6           2.6930    -2.0610     0.8870 ha         1 N87       0.143000
     29 H8           0.6960    -1.4110     4.2720 h1         1 N87       0.046700
     30 HO9          2.0070    -1.4050     5.9740 ho         1 N87       0.395000
     31 H10          2.7890     0.7140     3.7100 h1         1 N87       0.058700
     32 HO11         1.5730     1.8360     5.0480 ho         1 N87       0.394000
     33 H12          0.9810     1.6800     2.2240 hc         1 N87       0.065200
     34 H12A         0.1100     0.1430     2.3900 hc         1 N87       0.065200
     35 H14          1.0140    -4.1180     1.9270 ha         1 N87       0.165000
     36 H18          2.2200    -7.7380     4.4830 ha         1 N87       0.147500
     37 H19          2.8000   -10.0640     5.0430 ha         1 N87       0.127000
     38 H20          2.6430   -11.8220     3.3240 ha         1 N87       0.121000
     39 H21          1.9820   -11.2520     1.0210 ha         1 N87       0.127000
     40 H22          1.4910    -9.0760     0.3920 ha         1 N87       0.147500
     41 H23          3.6920    -6.9710     3.6890 ha         1 N87       0.131000
     42 H24          4.9370    -5.1400     4.7640 ha         1 N87       0.120000
     43 H25          4.2660    -2.8010     4.3940 ha         1 N87       0.153000
@<TRIPOS>BOND
     1     2     1 1
     2     4     2 1
     3     2     3 1
     4    12     4 1
     5     6     4 1
     6     5     4 1
     7     5    27 1
     8     7     6 2
     9     6    28 1
    10     8     7 1
    11    13     7 1
    12     9     8 1
    13     8    10 1
    14     8    29 1
    15     9    30 1
    16    11    10 1
    17    10    12 1
    18    10    31 1
    19    11    32 1
    20    12    33 1
    21    12    34 1
    22    14    13 ar
    23    13    25 ar
    24    15    14 ar
    25    14    35 1
    26    16    15 1
    27    15    23 ar
    28    26    16 2
    29    16    17 1
    30    18    17 ar
    31    17    22 ar
    32    18    19 ar
    33    18    36 1
    34    19    20 ar
    35    19    37 1
    36    20    21 ar
    37    20    38 1
    38    22    21 ar
    39    21    39 1
    40    22    40 1
    41    23    24 ar
    42    23    41 1
    43    24    25 ar
    44    24    42 1
    45    25    43 1
@<TRIPOS>SUBSTRUCTURE
     1 N87         1 TEMP              0 ****  ****    0 ROOT
