@<TRIPOS>MOLECULE
molecule
   37    37     1     0     0
SMALL
bcc


@<TRIPOS>ATOM
      1 C            1.5080     0.0000     0.0000 c          1 N88       0.865600
      2 C1           0.0000     0.0000     0.0000 c3         1 N88       0.070000
      3 O1           2.1780    -0.4970    -1.0510 o          1 N88      -0.823300
      4 C2          -0.5070     0.0000     1.4440 c3         1 N88      -0.107400
      5 O2           2.1110     0.4520     0.9430 o          1 N88      -0.823300
      6 C3          -2.0190     0.2540     1.4290 c3         1 N88       0.115100
      7 O3          -2.5490     0.0770     2.7430 oh         1 N88      -0.622800
      8 C4          -2.2670     1.6890     0.9580 c3         1 N88       0.218300
      9 O4          -3.6620     1.8730     0.7130 oh         1 N88      -0.597800
     10 C5          -1.4990     1.9590    -0.3030 ce         1 N88      -0.211400
     11 C6          -0.4970     1.2180    -0.7200 c2         1 N88      -0.030200
     12 C13         -1.8900     3.1210    -1.1160 c          1 N88       0.683300
     13 N14         -1.3150     3.3260    -2.3170 ns         1 N88      -0.588900
     14 C15         -1.6260     4.5380    -3.0810 c3         1 N88       0.128400
     15 C16         -0.8470     4.5240    -4.3970 c3         1 N88      -0.099767
     16 C17         -3.1260     4.5840    -3.3760 c3         1 N88      -0.099767
     17 C18         -1.2270     5.7690    -2.2650 c3         1 N88      -0.099767
     18 O19         -2.7310     3.8960    -0.7040 o          1 N88      -0.629100
     19 O30         -0.4730    -1.1710    -0.6670 oh         1 N88      -0.608800
     20 H2          -0.3040    -0.9610     1.9000 hc         1 N88       0.063700
     21 H2A         -0.0120     0.7860     2.0020 hc         1 N88       0.063700
     22 H3          -2.4950    -0.4380     0.7440 h1         1 N88       0.055700
     23 HO3         -2.9620    -0.7680     2.8050 ho         1 N88       0.394000
     24 H4          -1.9400     2.3770     1.7290 h1         1 N88       0.050700
     25 HO4         -4.0590     2.2930     1.4580 ho         1 N88       0.398000
     26 H6           0.0010     1.5060    -1.6380 ha         1 N88       0.132000
     27 HN14        -0.7230     2.6230    -2.7140 hn         1 N88       0.324500
     28 H16         -1.1320     3.6550    -4.9770 hc         1 N88       0.040700
     29 H16A        -1.0710     5.4230    -4.9590 hc         1 N88       0.040700
     30 H16B         0.2160     4.4860    -4.1880 hc         1 N88       0.040700
     31 H17         -3.6470     5.0140    -2.5280 hc         1 N88       0.040700
     32 H17A        -3.4910     3.5800    -3.5520 hc         1 N88       0.040700
     33 H17B        -3.3030     5.1930    -4.2540 hc         1 N88       0.040700
     34 H18         -1.1060     6.6180    -2.9280 hc         1 N88       0.040700
     35 H18A        -2.0000     5.9870    -1.5380 hc         1 N88       0.040700
     36 H18B        -0.2930     5.5760    -1.7520 hc         1 N88       0.040700
     37 HO30         0.0500    -1.9120    -0.4110 ho         1 N88       0.412000
@<TRIPOS>BOND
     1     1     3 1
     2     2     1 1
     3     2    19 1
     4     4     2 1
     5     4    20 1
     6     4    21 1
     7     5     1 1
     8     6     4 1
     9     6    22 1
    10     7     6 1
    11     7    23 1
    12     8     6 1
    13     8    10 1
    14     8    24 1
    15     9     8 1
    16     9    25 1
    17    10    12 1
    18    10    11 2
    19    11     2 1
    20    11    26 1
    21    12    13 1
    22    13    14 1
    23    13    27 1
    24    14    17 1
    25    15    14 1
    26    15    28 1
    27    15    29 1
    28    15    30 1
    29    16    14 1
    30    16    31 1
    31    16    32 1
    32    16    33 1
    33    17    34 1
    34    17    35 1
    35    17    36 1
    36    18    12 2
    37    19    37 1
@<TRIPOS>SUBSTRUCTURE
     1 N88         1 TEMP              0 ****  ****    0 ROOT
