@<TRIPOS>MOLECULE
N88
   37    37     1     0     0
SMALL
bcc


@<TRIPOS>ATOM
      1 C            1.5080     0.0000     0.0000 c          1 N88       0.948600
      2 C1           0.0000     0.0000     0.0000 c3         1 N88       0.095000
      3 O1           2.1780    -0.4970    -1.0510 o          1 N88      -0.873800
      4 C2          -0.5070     0.0000     1.4440 c3         1 N88      -0.070400
      5 O2           2.1110     0.4520     0.9430 o          1 N88      -0.873800
      6 C3          -2.0190     0.2540     1.4290 c3         1 N88       0.150100
      7 O3          -2.5490     0.0770     2.7430 oh         1 N88      -0.600800
      8 C4          -2.2670     1.6890     0.9580 c3         1 N88       0.269300
      9 O4          -3.6620     1.8730     0.7130 oh         1 N88      -0.580800
     10 C5          -1.4990     1.9590    -0.3030 ce         1 N88      -0.240400
     11 C6          -0.4970     1.2180    -0.7200 c2         1 N88      -0.014200
     12 C13         -1.8900     3.1210    -1.1160 c          1 N88       0.616300
     13 N14         -1.3150     3.3260    -2.3170 ns         1 N88      -0.214900
     14 C15         -1.6260     4.5380    -3.0810 c3         1 N88       0.019400
     15 C16         -0.8470     4.5240    -4.3970 c3         1 N88      -0.017100
     16 C17         -3.1260     4.5840    -3.3760 c3         1 N88      -0.017100
     17 C18         -1.2270     5.7690    -2.2650 c3         1 N88      -0.017100
     18 O19         -2.7310     3.8960    -0.7040 o          1 N88      -0.671100
     19 O30         -0.4730    -1.1710    -0.6670 oh         1 N88      -0.595800
     20 H2          -0.3040    -0.9610     1.9000 hc         1 N88       0.038200
     21 H2A         -0.0120     0.7860     2.0020 hc         1 N88       0.038200
     22 H3          -2.4950    -0.4380     0.7440 h1         1 N88       0.022700
     23 HO3         -2.9620    -0.7680     2.8050 ho         1 N88       0.381000
     24 H4          -1.9400     2.3770     1.7290 h1         1 N88       0.014700
     25 HO4         -4.0590     2.2930     1.4580 ho         1 N88       0.384000
     26 H6           0.0010     1.5060    -1.6380 ha         1 N88       0.104000
     27 HN14        -0.7230     2.6230    -2.7140 hn         1 N88       0.194500
     28 H16         -1.1320     3.6550    -4.9770 hc         1 N88       0.012367
     29 H16A        -1.0710     5.4230    -4.9590 hc         1 N88       0.012367
     30 H16B         0.2160     4.4860    -4.1880 hc         1 N88       0.012367
     31 H17         -3.6470     5.0140    -2.5280 hc         1 N88       0.012367
     32 H17A        -3.4910     3.5800    -3.5520 hc         1 N88       0.012367
     33 H17B        -3.3030     5.1930    -4.2540 hc         1 N88       0.012367
     34 H18         -1.1060     6.6180    -2.9280 hc         1 N88       0.012367
     35 H18A        -2.0000     5.9870    -1.5380 hc         1 N88       0.012367
     36 H18B        -0.2930     5.5760    -1.7520 hc         1 N88       0.012367
     37 HO30         0.0500    -1.9120    -0.4110 ho         1 N88       0.402000
@<TRIPOS>BOND
     1     1     2 1   
     2     1     3 1   
     3     1     5 1   
     4     2     4 1   
     5     2    11 1   
     6     2    19 1   
     7     4     6 1   
     8     4    20 1   
     9     4    21 1   
    10     6     7 1   
    11     6     8 1   
    12     6    22 1   
    13     7    23 1   
    14     8     9 1   
    15     8    10 1   
    16     8    24 1   
    17     9    25 1   
    18    10    11 2   
    19    10    12 1   
    20    11    26 1   
    21    12    13 1   
    22    12    18 2   
    23    13    14 1   
    24    13    27 1   
    25    14    15 1   
    26    14    16 1   
    27    14    17 1   
    28    15    28 1   
    29    15    29 1   
    30    15    30 1   
    31    16    31 1   
    32    16    32 1   
    33    16    33 1   
    34    17    34 1   
    35    17    35 1   
    36    17    36 1   
    37    19    37 1   
@<TRIPOS>SUBSTRUCTURE
     1 N88         1 TEMP              0 ****  ****    0 ROOT
