@<TRIPOS>MOLECULE
molecule
   28    27     1     0     0
SMALL
bcc


@<TRIPOS>ATOM
      1 O1           0.0000     0.0000     0.0000 o          1 N8C      -0.210000
      2 N1           1.2180     0.0000     0.0000 no         1 N8C       0.223300
      3 O2           1.8270     0.0000     1.0540 o          1 N8C      -0.210000
      4 C1           1.9500    -0.0080    -1.2690 c3         1 N8C      -0.075700
      5 C2           1.3220     1.0080    -2.2260 c3         1 N8C      -0.094400
      6 C3           2.0860     1.0000    -3.5510 c3         1 N8C      -0.081400
      7 C4           1.4580     2.0150    -4.5080 c3         1 N8C      -0.079400
      8 C5           2.2230     2.0080    -5.8330 c3         1 N8C      -0.082400
      9 C6           1.5950     3.0230    -6.7900 c3         1 N8C      -0.081400
     10 C7           2.3590     3.0150    -8.1150 c3         1 N8C      -0.084400
     11 C8           1.7310     4.0310    -9.0730 c3         1 N8C      -0.092100
     12 H1           2.9850     0.2570    -1.0900 h1         1 N8C       0.095700
     13 H1A          1.9010    -0.9970    -1.7080 h1         1 N8C       0.095700
     14 H2           1.3710     1.9970    -1.7870 hc         1 N8C       0.069700
     15 H2A          0.2870     0.7430    -2.4050 hc         1 N8C       0.069700
     16 H3           2.0370     0.0120    -3.9910 hc         1 N8C       0.045200
     17 H3A          3.1210     1.2650    -3.3730 hc         1 N8C       0.045200
     18 H4           0.4230     1.7510    -4.6870 hc         1 N8C       0.046700
     19 H4A          1.5070     3.0040    -4.0680 hc         1 N8C       0.046700
     20 H5           3.2580     2.2730    -5.6540 hc         1 N8C       0.042200
     21 H5A          2.1740     1.0190    -6.2730 hc         1 N8C       0.042200
     22 H6           0.5600     2.7580    -6.9680 hc         1 N8C       0.042700
     23 H6A          1.6440     4.0120    -6.3500 hc         1 N8C       0.042700
     24 H7           2.3100     2.0270    -8.5550 hc         1 N8C       0.040700
     25 H7A          3.3940     3.2800    -7.9360 hc         1 N8C       0.040700
     26 H8           1.7800     5.0200    -8.6330 hc         1 N8C       0.033700
     27 H8A          2.2720     4.0250   -10.0110 hc         1 N8C       0.033700
     28 H8B          0.6950     3.7660    -9.2510 hc         1 N8C       0.033700
@<TRIPOS>BOND
     1     1     2 1
     2     2     3 1
     3     2     4 1
     4     4     5 1
     5     5     6 1
     6     6     7 1
     7     7     8 1
     8     8     9 1
     9     9    10 1
    10    10    11 1
    11     4    12 1
    12     4    13 1
    13     5    14 1
    14     5    15 1
    15     6    16 1
    16     6    17 1
    17     7    18 1
    18     7    19 1
    19     8    20 1
    20     8    21 1
    21     9    22 1
    22     9    23 1
    23    10    24 1
    24    10    25 1
    25    11    26 1
    26    11    27 1
    27    11    28 1
@<TRIPOS>SUBSTRUCTURE
     1 N8C         1 TEMP              0 ****  ****    0 ROOT
