@<TRIPOS>MOLECULE
N8E
   62    61     1     0     0
SMALL
bcc


@<TRIPOS>ATOM
      1 C01        -1.2710    2.0880    0.6990 c3        1 N8E     -0.093100
      2 C02        -0.0470    1.2360    0.4870 c3        1 N8E     -0.080400
      3 C03         0.9580    1.4190    1.6050 c3        1 N8E     -0.079400
      4 C04         2.1860    0.5620    1.3870 c3        1 N8E     -0.079400
      5 C05         3.1890    0.7460    2.5060 c3        1 N8E     -0.078400
      6 C06         4.4180   -0.1110    2.2880 c3        1 N8E     -0.078400
      7 C07         5.4170    0.0750    3.4080 c3        1 N8E     -0.083400
      8 C08         6.6430   -0.7880    3.1740 c3        1 N8E      0.132400
      9 O09         7.5240   -0.5520    4.2700 os        1 N8E     -0.428600
     10 C10         8.7350   -1.2970    4.1580 c3        1 N8E      0.126400
     11 C11         9.5030   -1.0700    5.4570 c3        1 N8E      0.127400
     12 O12         9.5020   -2.3170    6.1490 os        1 N8E     -0.429600
     13 C13        10.0480   -2.2050    7.4620 c3        1 N8E      0.127400
     14 C14        10.1450   -3.6240    8.0130 c3        1 N8E      0.127400
     15 O15        11.5290   -3.9690    8.0040 os        1 N8E     -0.429600
     16 C16        11.7460   -5.3370    8.3410 c3        1 N8E      0.127400
     17 C17        13.2560   -5.5190    8.4600 c3        1 N8E      0.127400
     18 O18        13.5410   -5.6410    9.8520 os        1 N8E     -0.428600
     19 C19        14.9420   -5.6470   10.1180 c3        1 N8E      0.127400
     20 C20        15.0990   -5.9520   11.6040 c3        1 N8E      0.128400
     21 O21        15.5800   -7.2930   11.6940 os        1 N8E     -0.438600
     22 C22        15.6070   -7.7700   13.0370 c3        1 N8E      0.087400
     23 C23        16.1920   -9.1770   12.9750 c3        1 N8E      0.131400
     24 O24        17.5450   -9.1610   12.5690 oh        1 N8E     -0.600800
     25 H011       -1.7760    1.8210    1.6590 hc        1 N8E      0.032700
     26 H012       -1.9980    1.9380   -0.1360 hc        1 N8E      0.032700
     27 H013       -0.9970    3.1700    0.7380 hc        1 N8E      0.032700
     28 H021       -0.3450    0.1560    0.4260 hc        1 N8E      0.038700
     29 H022        0.4320    1.5020   -0.4930 hc        1 N8E      0.038700
     30 H031        0.4810    1.1520    2.5850 hc        1 N8E      0.039700
     31 H032        1.2580    2.4980    1.6670 hc        1 N8E      0.039700
     32 H041        2.6620    0.8290    0.4070 hc        1 N8E      0.039200
     33 H042        1.8850   -0.5170    1.3250 hc        1 N8E      0.039200
     34 H051        2.7130    0.4780    3.4860 hc        1 N8E      0.041700
     35 H052        3.4900    1.8250    2.5690 hc        1 N8E      0.041700
     36 H061        4.8940    0.1570    1.3080 hc        1 N8E      0.040200
     37 H062        4.1170   -1.1900    2.2260 hc        1 N8E      0.040200
     38 H071        5.7280    1.1510    3.4760 hc        1 N8E      0.054700
     39 H072        4.9540   -0.1980    4.3910 hc        1 N8E      0.054700
     40 H081        7.1540   -0.5110    2.2130 h1        1 N8E      0.025700
     41 H082        6.3690   -1.8770    3.1390 h1        1 N8E      0.025700
     42 H101        9.3230   -0.9160    3.2820 h1        1 N8E      0.042200
     43 H102        8.5100   -2.3870    4.0140 h1        1 N8E      0.042200
     44 H111       10.5620   -0.7710    5.2400 h1        1 N8E      0.043200
     45 H112        9.0080   -0.2790    6.0790 h1        1 N8E      0.043200
     46 H131        9.3590   -1.5860    8.0960 h1        1 N8E      0.043700
     47 H132       11.0600   -1.7230    7.4220 h1        1 N8E      0.043700
     48 H141        9.7630   -3.6620    9.0670 h1        1 N8E      0.043700
     49 H142        9.5620   -4.3400    7.3750 h1        1 N8E      0.043700
     50 H161       11.2380   -5.5840    9.3110 h1        1 N8E      0.043700
     51 H162       11.3380   -5.9880    7.5240 h1        1 N8E      0.043700
     52 H171       13.5800   -6.4560    7.9350 h1        1 N8E      0.044200
     53 H172       13.7990   -4.6370    8.0270 h1        1 N8E      0.044200
     54 H191       15.4530   -6.4270    9.4930 h1        1 N8E      0.043200
     55 H192       15.3670   -4.6360    9.8800 h1        1 N8E      0.043200
     56 H201       15.8510   -5.2620   12.0690 h1        1 N8E      0.045200
     57 H202       14.1160   -5.8560   12.1360 h1        1 N8E      0.045200
     58 H221       16.2510   -7.0980   13.6640 h1        1 N8E      0.039200
     59 H222       14.5670   -7.7930   13.4550 h1        1 N8E      0.039200
     60 H231       15.5860   -9.8140   12.2770 h1        1 N8E      0.053200
     61 H232       16.2000   -9.6310   14.0020 h1        1 N8E      0.053200
     62 H24        17.5750   -8.7140   11.7130 ho        1 N8E      0.412000
@<TRIPOS>BOND
     1    1    2 1   
     2    1   25 1   
     3    1   26 1   
     4    1   27 1   
     5    2    3 1   
     6    2   28 1   
     7    2   29 1   
     8    3    4 1   
     9    3   30 1   
    10    3   31 1   
    11    4    5 1   
    12    4   32 1   
    13    4   33 1   
    14    5    6 1   
    15    5   34 1   
    16    5   35 1   
    17    6    7 1   
    18    6   36 1   
    19    6   37 1   
    20    7    8 1   
    21    7   38 1   
    22    7   39 1   
    23    8    9 1   
    24    8   40 1   
    25    8   41 1   
    26    9   10 1   
    27   10   11 1   
    28   10   42 1   
    29   10   43 1   
    30   11   12 1   
    31   11   44 1   
    32   11   45 1   
    33   12   13 1   
    34   13   14 1   
    35   13   46 1   
    36   13   47 1   
    37   14   15 1   
    38   14   48 1   
    39   14   49 1   
    40   15   16 1   
    41   16   17 1   
    42   16   50 1   
    43   16   51 1   
    44   17   18 1   
    45   17   52 1   
    46   17   53 1   
    47   18   19 1   
    48   19   20 1   
    49   19   54 1   
    50   19   55 1   
    51   20   21 1   
    52   20   56 1   
    53   20   57 1   
    54   21   22 1   
    55   22   23 1   
    56   22   58 1   
    57   22   59 1   
    58   23   24 1   
    59   23   60 1   
    60   23   61 1   
    61   24   62 1   
@<TRIPOS>SUBSTRUCTURE
     1 N8E         1 TEMP              0 ****  ****    0 ROOT
