@<TRIPOS>MOLECULE
molecule
   62    61     1     0     0
SMALL
bcc


@<TRIPOS>ATOM
      1 C01          0.0000     0.0000     0.0000 c3         1 N8E      -0.092100
      2 C02          1.5290     0.0000     0.0000 c3         1 N8E      -0.084400
      3 C03          2.0400     0.0000     1.4420 c3         1 N8E      -0.081400
      4 C04          3.5700     0.0010     1.4420 c3         1 N8E      -0.082400
      5 C05          4.0810     0.0010     2.8840 c3         1 N8E      -0.080400
      6 C06          5.6100     0.0000     2.8830 c3         1 N8E      -0.081400
      7 C07          6.1210     0.0010     4.3260 c3         1 N8E      -0.082400
      8 C08          7.6500     0.0010     4.3250 c3         1 N8E       0.124400
      9 O09          8.1270     0.0010     5.6720 os         1 N8E      -0.397600
     10 C10          9.5550     0.0020     5.6050 c3         1 N8E       0.128400
     11 C11         10.1320     0.0020     7.0230 c3         1 N8E       0.126400
     12 O12          9.6880    -1.1640     7.7170 os         1 N8E      -0.382600
     13 C13         10.2570    -1.1070     9.0260 c3         1 N8E       0.126400
     14 C14          9.8200    -2.3340     9.8270 c3         1 N8E       0.126400
     15 O15         10.2660    -3.5190     9.1650 os         1 N8E      -0.384600
     16 C16          9.8280    -4.6240     9.9580 c3         1 N8E       0.126400
     17 C17         10.2770    -5.9320     9.3030 c3         1 N8E       0.126400
     18 O18         11.7020    -5.9510     9.2040 os         1 N8E      -0.383600
     19 C19         12.0560    -7.1900     8.5870 c3         1 N8E       0.127400
     20 C20         13.5770    -7.2750     8.4510 c3         1 N8E       0.125400
     21 O21         14.1770    -7.2000     9.7460 os         1 N8E      -0.380600
     22 C22         15.5900    -7.2840     9.5530 c3         1 N8E       0.126400
     23 C23         16.2950    -7.2090    10.9090 c3         1 N8E       0.142400
     24 O24         15.8620    -8.2930    11.7310 oh         1 N8E      -0.596800
     25 H011        -0.3610    -0.8880     0.5050 hc         1 N8E       0.032367
     26 H012        -0.3610     0.8810     0.5160 hc         1 N8E       0.032367
     27 H013        -0.3610     0.0070    -1.0210 hc         1 N8E       0.032367
     28 H021         1.8900     0.8840    -0.5110 hc         1 N8E       0.039700
     29 H022         1.8900    -0.8840    -0.5110 hc         1 N8E       0.039700
     30 H031         1.6800    -0.8850     1.9520 hc         1 N8E       0.041700
     31 H032         1.6790     0.8840     1.9530 hc         1 N8E       0.041700
     32 H041         3.9310    -0.8830     0.9310 hc         1 N8E       0.040700
     33 H042         3.9300     0.8860     0.9310 hc         1 N8E       0.040700
     34 H051         3.7190    -0.8830     3.3950 hc         1 N8E       0.043200
     35 H052         3.7210     0.8860     3.3950 hc         1 N8E       0.043200
     36 H061         5.9710     0.8840     2.3720 hc         1 N8E       0.040700
     37 H062         5.9700    -0.8850     2.3730 hc         1 N8E       0.040700
     38 H071         5.7600    -0.8830     4.8380 hc         1 N8E       0.053700
     39 H072         5.7600     0.8860     4.8370 hc         1 N8E       0.053700
     40 H081         8.0110     0.8850     3.8140 h1         1 N8E       0.023700
     41 H082         8.0110    -0.8840     3.8150 h1         1 N8E       0.023700
     42 H101         9.8920     0.8870     5.0790 h1         1 N8E       0.033200
     43 H102         9.8930    -0.8820     5.0780 h1         1 N8E       0.033200
     44 H111         9.7950     0.8860     7.5500 h1         1 N8E       0.031700
     45 H112        11.2140     0.0020     6.9720 h1         1 N8E       0.031700
     46 H131         9.9180    -0.2080     9.5270 h1         1 N8E       0.032700
     47 H132        11.3380    -1.0920     8.9490 h1         1 N8E       0.032700
     48 H141        10.2520    -2.2900    10.8190 h1         1 N8E       0.033200
     49 H142         8.7390    -2.3490     9.9050 h1         1 N8E       0.033200
     50 H161         8.7480    -4.6090    10.0330 h1         1 N8E       0.033200
     51 H162        10.2590    -4.5500    10.9490 h1         1 N8E       0.033200
     52 H171         9.9450    -6.7690     9.9050 h1         1 N8E       0.033200
     53 H172         9.8450    -6.0060     8.3120 h1         1 N8E       0.033200
     54 H191        11.6020    -7.2470     7.6050 h1         1 N8E       0.033200
     55 H192        11.7020    -8.0120     9.1960 h1         1 N8E       0.033200
     56 H201        13.8460    -8.2140     7.9830 h1         1 N8E       0.032200
     57 H202        13.9320    -6.4530     7.8410 h1         1 N8E       0.032200
     58 H221        15.9190    -6.4630     8.9290 h1         1 N8E       0.030700
     59 H222        15.8330    -8.2240     9.0720 h1         1 N8E       0.030700
     60 H231        17.3670    -7.2720    10.7620 h1         1 N8E       0.029200
     61 H232        16.0510    -6.2700    11.3910 h1         1 N8E       0.029200
     62 H24         16.4910    -8.4370    12.4190 ho         1 N8E       0.397000
@<TRIPOS>BOND
     1     1     2 1
     2     1    25 1
     3     1    26 1
     4     1    27 1
     5     2     3 1
     6     2    28 1
     7     2    29 1
     8     3     4 1
     9     3    30 1
    10     3    31 1
    11     4     5 1
    12     4    32 1
    13     4    33 1
    14     5     6 1
    15     5    34 1
    16     5    35 1
    17     6     7 1
    18     6    36 1
    19     6    37 1
    20     7     8 1
    21     7    38 1
    22     7    39 1
    23     8     9 1
    24     8    40 1
    25     8    41 1
    26     9    10 1
    27    10    11 1
    28    10    42 1
    29    10    43 1
    30    11    12 1
    31    11    44 1
    32    11    45 1
    33    12    13 1
    34    13    14 1
    35    13    46 1
    36    13    47 1
    37    14    15 1
    38    14    48 1
    39    14    49 1
    40    15    16 1
    41    16    17 1
    42    16    50 1
    43    16    51 1
    44    17    18 1
    45    17    52 1
    46    17    53 1
    47    18    19 1
    48    19    20 1
    49    19    54 1
    50    19    55 1
    51    20    21 1
    52    20    56 1
    53    20    57 1
    54    21    22 1
    55    22    23 1
    56    22    58 1
    57    22    59 1
    58    23    24 1
    59    23    60 1
    60    23    61 1
    61    24    62 1
@<TRIPOS>SUBSTRUCTURE
     1 N8E         1 TEMP              0 ****  ****    0 ROOT
