@<TRIPOS>MOLECULE
molecule
   42    44     1     0     0
SMALL
bcc


@<TRIPOS>ATOM
      1 CG           0.0000     0.0000     0.0000 c3         1 N8M       0.151100
      2 N2           1.4690     0.0000     0.0000 n3         1 N8M      -0.728600
      3 CE           1.9950     0.0000     1.3720 c3         1 N8M       0.151100
      4 C5'          1.9960    -1.1380    -0.7660 c3         1 N8M       0.168800
      5 C4'          3.5040    -0.9710    -0.9560 c3         1 N8M       0.129100
      6 O4'          4.1910    -1.1440     0.3020 os         1 N8M      -0.415600
      7 C1'          5.5550    -1.4600    -0.0490 c3         1 N8M       0.250800
      8 N9           6.2280    -2.1260     1.0690 na         1 N8M      -0.247000
      9 C4           7.4980    -1.8710     1.5210 ca         1 N8M       0.482800
     10 N3           8.4700    -1.0370     1.1650 nb         1 N8M      -0.790000
     11 C2           9.6160    -1.0260     1.8140 ca         1 N8M       0.741900
     12 N1           9.8600    -1.8280     2.8350 nb         1 N8M      -0.836000
     13 C6           8.9490    -2.6950     3.2620 ca         1 N8M       0.787200
     14 N6           9.2130    -3.5320     4.3320 nv         1 N8M      -0.984500
     15 C5           7.7090    -2.7440     2.6010 ca         1 N8M      -0.210200
     16 N7           6.5770    -3.4730     2.7510 nc         1 N8M      -0.587100
     17 C8           5.7050    -3.1090     1.8560 cd         1 N8M       0.417800
     18 C2'          5.4400    -2.4190    -1.2550 c3         1 N8M       0.087100
     19 O2'          6.4800    -2.1620    -2.2000 oh         1 N8M      -0.561800
     20 C3'          4.0590    -2.0890    -1.8640 c3         1 N8M       0.092100
     21 O3'          4.2050    -1.6190    -3.2060 oh         1 N8M      -0.567800
     22 C9           4.3230    -3.6900     1.7090 c3         1 N8M      -0.090400
     23 HG          -0.3610     0.0150    -1.0210 h1         1 N8M       0.035700
     24 HGA         -0.3610    -0.8920     0.4980 h1         1 N8M       0.035700
     25 HGB         -0.3610     0.8770     0.5230 h1         1 N8M       0.035700
     26 HE           2.0220    -1.0150     1.7480 h1         1 N8M       0.035700
     27 HEA          2.9970     0.4120     1.3740 h1         1 N8M       0.035700
     28 HEB          1.3550     0.6030     2.0040 h1         1 N8M       0.035700
     29 H5'          1.7990    -2.0570    -0.2290 h1         1 N8M       0.041700
     30 H5'A         1.5120    -1.1750    -1.7350 h1         1 N8M       0.041700
     31 H4'          3.7320     0.0010    -1.3770 h1         1 N8M       0.095700
     32 H1'          6.0870    -0.5610    -0.3350 h2         1 N8M       0.119700
     33 H2          10.3870    -0.3340     1.4990 h5         1 N8M       0.062100
     34 HN6          8.5180    -4.1800     4.6440 hn         1 N8M       0.449800
     35 HN6A        10.1000    -3.4890     4.7940 hn         1 N8M       0.449800
     36 H2'          5.4680    -3.4490    -0.9210 h1         1 N8M       0.053700
     37 HO2'         6.8440    -2.9790    -2.4960 ho         1 N8M       0.407000
     38 H3'          3.4140    -2.9590    -1.8290 h1         1 N8M       0.044700
     39 HO3'         3.7800    -2.2190    -3.7970 ho         1 N8M       0.402000
     40 H9           4.2100    -4.1050     0.7150 hc         1 N8M       0.059367
     41 H9A          4.1790    -4.4710     2.4450 hc         1 N8M       0.059367
     42 H9B          3.5860    -2.9100     1.8610 hc         1 N8M       0.059367
@<TRIPOS>BOND
     1     2     1 1
     2     1    23 1
     3     1    24 1
     4     1    25 1
     5     3     2 1
     6     2     4 1
     7     3    26 1
     8     3    27 1
     9     3    28 1
    10     5     4 1
    11     4    29 1
    12     4    30 1
    13     6     5 1
    14     5    20 1
    15     5    31 1
    16     7     6 1
    17     8     7 1
    18     7    18 1
    19     7    32 1
    20    17     8 1
    21     8     9 1
    22    15     9 ar
    23     9    10 ar
    24    10    11 ar
    25    12    11 ar
    26    11    33 1
    27    13    12 ar
    28    15    13 ar
    29    14    13 1
    30    14    34 1
    31    14    35 1
    32    16    15 1
    33    17    16 2
    34    22    17 1
    35    19    18 1
    36    18    20 1
    37    18    36 1
    38    19    37 1
    39    21    20 1
    40    20    38 1
    41    21    39 1
    42    22    40 1
    43    22    41 1
    44    22    42 1
@<TRIPOS>SUBSTRUCTURE
     1 N8M         1 TEMP              0 ****  ****    0 ROOT
