@<TRIPOS>MOLECULE
molecule
   30    32     1     0     0
SMALL
bcc


@<TRIPOS>ATOM
      1 CAJ          0.0000     0.0000     0.0000 ca         1 N8N      -0.115000
      2 CAO          1.3830     0.0000     0.0000 ca         1 N8N       0.036400
      3 Cl           2.2500     0.0010    -1.5040 cl         1 N8N      -0.113400
      4 CAG          2.0760     0.0000     1.1980 ca         1 N8N      -0.124000
      5 CAE          1.3880    -0.0010     2.3970 ca         1 N8N      -0.115000
      6 CAH          0.0070    -0.0020     2.4040 ca         1 N8N      -0.098000
      7 CAP         -0.6920    -0.0010     1.2030 ca         1 N8N       0.097600
      8 NAS         -2.0910    -0.0010     1.2080 n          1 N8N      -0.390000
      9 CAN         -2.7740    -1.0440     1.6650 c          1 N8N       0.697500
     10 OAA         -2.2190    -2.0350     2.0890 o          1 N8N      -0.600500
     11 CAK         -4.2850    -0.9280     1.6280 c3         1 N8N      -0.049300
     12 SAM         -4.5310     0.8790     1.3940 ss         1 N8N      -0.344200
     13 CAR         -2.8500     1.1560     0.7110 c3         1 N8N       0.180500
     14 CAQ         -2.2660     2.4420     1.2380 ca         1 N8N       0.407600
     15 CAI         -3.1060     3.4880     1.5680 ca         1 N8N      -0.225300
     16 CAD         -2.5590     4.6670     2.0520 ca         1 N8N      -0.089000
     17 CAC         -1.1810     4.7480     2.1870 ca         1 N8N      -0.245300
     18 CAF         -0.4040     3.6600     1.8370 ca         1 N8N       0.425200
     19 NAL         -0.9610     2.5530     1.3840 nb         1 N8N      -0.676000
     20 HAJ         -0.5420     0.0010    -0.9380 ha         1 N8N       0.143000
     21 HAG          3.1590     0.0000     1.1960 ha         1 N8N       0.141000
     22 HAE          1.9330    -0.0020     3.3340 ha         1 N8N       0.137000
     23 HAH         -0.5300    -0.0030     3.3440 ha         1 N8N       0.143000
     24 HAR         -2.8760     1.1560    -0.3720 h2         1 N8N       0.096700
     25 HAK1        -4.6920    -1.4820     0.7910 h1         1 N8N       0.105700
     26 HAK2        -4.7180    -1.2560     2.5650 h1         1 N8N       0.105700
     27 HAI         -4.1790     3.3900     1.4500 ha         1 N8N       0.153000
     28 HAD         -3.1930     5.5040     2.3190 ha         1 N8N       0.144000
     29 HAC         -0.7190     5.6540     2.5610 ha         1 N8N       0.142000
     30 HAF          0.6720     3.7140     1.9410 h4         1 N8N       0.030100
@<TRIPOS>BOND
     1     1     2 ar
     2     1     7 ar
     3     2     3 1
     4     2     4 ar
     5     4     5 ar
     6     5     6 ar
     7     6     7 ar
     8     7     8 1
     9     8     9 1
    10     8    13 1
    11     9    10 2
    12     9    11 1
    13    11    12 1
    14    12    13 1
    15    13    14 1
    16    14    15 ar
    17    14    19 ar
    18    15    16 ar
    19    16    17 ar
    20    17    18 ar
    21    18    19 ar
    22     1    20 1
    23     4    21 1
    24     5    22 1
    25     6    23 1
    26    13    24 1
    27    11    25 1
    28    11    26 1
    29    15    27 1
    30    16    28 1
    31    17    29 1
    32    18    30 1
@<TRIPOS>SUBSTRUCTURE
     1 N8N         1 TEMP              0 ****  ****    0 ROOT
