@<TRIPOS>MOLECULE
molecule
   79    84     1     0     0
SMALL
bcc


@<TRIPOS>ATOM
      1 CBD          0.0000     0.0000     0.0000 c3         1 N8T      -0.124700
      2 CBE          1.5270     0.0000     0.0000 c3         1 N8T      -0.083400
      3 CAQ          2.0120     0.0000     1.4540 c3         1 N8T      -0.086400
      4 CAP          1.6970     1.3650     2.0650 c3         1 N8T      -0.020100
      5 CAO          0.2540     1.7290     1.8320 ca         1 N8T      -0.185600
      6 CBC         -0.5300     1.1060     0.8780 ca         1 N8T       0.456600
      7 NBB         -1.7920     1.4610     0.6990 nb         1 N8T      -0.701000
      8 CBA         -2.3770     2.4210     1.4160 ca         1 N8T       0.431600
      9 CAZ         -3.7210     2.7740     1.2040 ca         1 N8T      -0.163300
     10 CAY         -4.2880     3.7580     1.9540 ca         1 N8T      -0.122000
     11 CAK         -3.5580     4.4240     2.9350 ca         1 N8T      -0.128000
     12 CAL         -2.2540     4.1100     3.1680 ca         1 N8T      -0.116000
     13 CAM         -1.6400     3.0970     2.4170 ca         1 N8T      -0.189300
     14 CAN         -0.2890     2.7400     2.6190 ca         1 N8T       0.156600
     15 NAA          0.4780     3.3780     3.5820 nu         1 N8T      -0.799600
     16 CAB          0.1810     2.7200     4.8610 c3         1 N8T       0.197800
     17 CAC          1.0910     3.2900     5.9520 c3         1 N8T      -0.091400
     18 CAD          0.7820     2.6050     7.2850 c3         1 N8T      -0.081400
     19 CAE          1.6930     3.1740     8.3740 c3         1 N8T      -0.081400
     20 CAF          1.3840     2.4890     9.7070 c3         1 N8T      -0.081400
     21 CAG          2.2940     3.0590    10.7960 c3         1 N8T      -0.079400
     22 CAH          1.9850     2.3730    12.1290 c3         1 N8T      -0.070400
     23 CAI          2.8950     2.9420    13.2180 c3         1 N8T       0.003700
     24 SAJ          2.5300     2.1320    14.7950 ss         1 N8T      -0.291000
     25 CAU          3.6870     2.9550    15.8380 ca         1 N8T       0.036900
     26 CAV          3.3380     4.1290    16.5030 ca         1 N8T      -0.141600
     27 CAW          1.9470     4.6620    16.2900 c3         1 N8T      -0.039100
     28 CAX          1.5850     5.6690    17.3800 c3         1 N8T      -0.083400
     29 CBL          2.7130     6.7040    17.4720 c3         1 N8T      -0.085400
     30 CBK          3.9440     6.0250    18.0660 c3         1 N8T      -0.124700
     31 CBJ          4.2650     4.7550    17.3160 ca         1 N8T       0.439600
     32 NBI          5.4810     4.2580    17.4710 nb         1 N8T      -0.676000
     33 CBH          5.8830     3.1400    16.8660 ca         1 N8T       0.415600
     34 CAT          4.9890     2.4370    16.0240 ca         1 N8T      -0.124300
     35 CAS          5.4120     1.2650    15.3830 ca         1 N8T      -0.115000
     36 CAR          6.6790     0.8060    15.5870 ca         1 N8T      -0.124000
     37 CBF          7.5600     1.4920    16.4190 ca         1 N8T      -0.123000
     38 CBG          7.1830     2.6360    17.0520 ca         1 N8T      -0.163300
     39 HBD1        -0.3560     0.1480    -1.0120 hc         1 N8T       0.063700
     40 HBD2        -0.3560    -0.9530     0.3740 hc         1 N8T       0.063700
     41 HBE1         1.8910     0.8870    -0.5040 hc         1 N8T       0.046700
     42 HBE2         1.8910    -0.8870    -0.5040 hc         1 N8T       0.046700
     43 HAQ1         3.0810    -0.1730     1.4820 hc         1 N8T       0.044700
     44 HAQ2         1.4970    -0.7750     2.0100 hc         1 N8T       0.044700
     45 HAP1         1.8880     1.3300     3.1310 hc         1 N8T       0.058700
     46 HAP2         2.3320     2.1140     1.6070 hc         1 N8T       0.058700
     47 HAZ         -4.3040     2.2650     0.4450 ha         1 N8T       0.148000
     48 HAY         -5.3240     4.0260     1.7870 ha         1 N8T       0.132000
     49 HAK         -4.0330     5.2040     3.5190 ha         1 N8T       0.129000
     50 HAL         -1.6950     4.6350     3.9340 ha         1 N8T       0.128000
     51 HAA          0.6010     4.3710     3.5460 hn         1 N8T       0.421800
     52 HAB1        -0.8540     2.8970     5.1270 h1         1 N8T       0.040200
     53 HAB2         0.3530     1.6550     4.7680 h1         1 N8T       0.040200
     54 HAC1         0.9190     4.3560     6.0450 hc         1 N8T       0.047200
     55 HAC2         2.1270     3.1130     5.6870 hc         1 N8T       0.047200
     56 HAD1         0.9530     1.5390     7.1910 hc         1 N8T       0.043700
     57 HAD2        -0.2530     2.7820     7.5500 hc         1 N8T       0.043700
     58 HAE1         1.5220     4.2400     8.4680 hc         1 N8T       0.042700
     59 HAE2         2.7280     2.9970     8.1080 hc         1 N8T       0.042700
     60 HAF1         0.3480     2.6660     9.9720 hc         1 N8T       0.043700
     61 HAF2         1.5560     1.4230     9.6130 hc         1 N8T       0.043700
     62 HAG1         2.1220     4.1240    10.8900 hc         1 N8T       0.043700
     63 HAG2         3.3290     2.8820    10.5310 hc         1 N8T       0.043700
     64 HAH1         0.9500     2.5510    12.3950 hc         1 N8T       0.053700
     65 HAH2         2.1560     1.3080    12.0350 hc         1 N8T       0.053700
     66 HAI1         3.9310     2.7650    12.9530 h1         1 N8T       0.062700
     67 HAI2         2.7240     4.0080    13.3120 h1         1 N8T       0.062700
     68 HAW1         1.2430     3.8390    16.3170 hc         1 N8T       0.064700
     69 HAW2         1.8970     5.1490    15.3240 hc         1 N8T       0.064700
     70 HAX1         0.6560     6.1650    17.1230 hc         1 N8T       0.048200
     71 HAX2         1.4820     5.1570    18.3290 hc         1 N8T       0.048200
     72 HBL1         2.9460     7.0770    16.4820 hc         1 N8T       0.047200
     73 HBL2         2.4050     7.5220    18.1130 hc         1 N8T       0.047200
     74 HBK1         3.7510     5.7850    19.1050 hc         1 N8T       0.065200
     75 HBK2         4.7890     6.6990    18.0010 hc         1 N8T       0.065200
     76 HAS          4.7340     0.7240    14.7340 ha         1 N8T       0.153000
     77 HAR          7.0040    -0.1030    15.0950 ha         1 N8T       0.132000
     78 HBF          8.5630     1.1080    16.5660 ha         1 N8T       0.133000
     79 HBG          7.8810     3.1570    17.6950 ha         1 N8T       0.148000
@<TRIPOS>BOND
     1     1     2 1
     2     1     6 1
     3     1    39 1
     4     1    40 1
     5     2     3 1
     6     2    41 1
     7     2    42 1
     8     3     4 1
     9     3    43 1
    10     3    44 1
    11     4     5 1
    12     4    45 1
    13     4    46 1
    14     5     6 ar
    15     5    14 ar
    16     6     7 ar
    17     7     8 ar
    18     8     9 ar
    19     8    13 ar
    20     9    10 ar
    21     9    47 1
    22    10    11 ar
    23    10    48 1
    24    11    12 ar
    25    11    49 1
    26    12    13 ar
    27    12    50 1
    28    13    14 ar
    29    14    15 1
    30    15    16 1
    31    15    51 1
    32    16    17 1
    33    16    52 1
    34    16    53 1
    35    17    18 1
    36    17    54 1
    37    17    55 1
    38    18    19 1
    39    18    56 1
    40    18    57 1
    41    19    20 1
    42    19    58 1
    43    19    59 1
    44    20    21 1
    45    20    60 1
    46    20    61 1
    47    21    22 1
    48    21    62 1
    49    21    63 1
    50    22    23 1
    51    22    64 1
    52    22    65 1
    53    23    24 1
    54    23    66 1
    55    23    67 1
    56    24    25 1
    57    25    26 ar
    58    25    34 ar
    59    26    27 1
    60    26    31 ar
    61    27    28 1
    62    27    68 1
    63    27    69 1
    64    28    29 1
    65    28    70 1
    66    28    71 1
    67    29    30 1
    68    29    72 1
    69    29    73 1
    70    30    31 1
    71    30    74 1
    72    30    75 1
    73    31    32 ar
    74    32    33 ar
    75    33    34 ar
    76    33    38 ar
    77    34    35 ar
    78    35    36 ar
    79    35    76 1
    80    36    37 ar
    81    36    77 1
    82    37    38 ar
    83    37    78 1
    84    38    79 1
@<TRIPOS>SUBSTRUCTURE
     1 N8T         1 TEMP              0 ****  ****    0 ROOT
