@<TRIPOS>MOLECULE
molecule
   49    49     1     0     0
SMALL
bcc


@<TRIPOS>ATOM
      1 O2           0.0000     0.0000     0.0000 oh         1 N8V      -0.611800
      2 C2           1.4300     0.0000     0.0000 c3         1 N8V       0.140100
      3 C3           1.9440     0.0000     1.4450 c3         1 N8V       0.128100
      4 O3           1.3460    -1.0770     2.1690 oh         1 N8V      -0.590800
      5 C4           3.4650    -0.1810     1.4170 c3         1 N8V       0.179300
      6 O4           3.7750    -1.5170     1.0190 oh         1 N8V      -0.583800
      7 C1           1.9440     1.2600    -0.6980 c3         1 N8V       0.191700
      8 C7           3.4210     1.4080    -0.4760 c2         1 N8V      -0.097200
      9 C5           4.0810     0.7840     0.4470 c2         1 N8V      -0.168400
     10 C6           5.5620     1.0440     0.5540 c3         1 N8V       0.184600
     11 O6           5.9540     1.9830    -0.4490 oh         1 N8V      -0.610800
     12 N8           1.6760     1.1630    -2.1390 n7         1 N8V      -0.810200
     13 C9           1.5880     2.4950    -2.7490 c3         1 N8V       0.155800
     14 C10          1.3080     2.3540    -4.2470 c3         1 N8V      -0.082400
     15 C11          1.2180     3.7420    -4.8830 c3         1 N8V      -0.082400
     16 C12          0.9370     3.6000    -6.3800 c3         1 N8V      -0.080400
     17 C13          0.8460     4.9890    -7.0160 c3         1 N8V      -0.082400
     18 C14          0.5670     4.8460    -8.5140 c3         1 N8V      -0.081400
     19 C15          0.4750     6.2350    -9.1500 c3         1 N8V      -0.084400
     20 C16          0.1960     6.0930   -10.6470 c3         1 N8V      -0.092100
     21 H1          -0.3140    -0.8400    -0.2910 ho         1 N8V       0.413000
     22 H2           1.7990    -0.8780    -0.5170 h1         1 N8V       0.080700
     23 H3           1.7000     0.9440     1.9180 h1         1 N8V       0.047700
     24 H4           1.0480    -0.7650     3.0080 ho         1 N8V       0.401000
     25 H5           3.8640     0.0050     2.4070 h1         1 N8V       0.032700
     26 H6           4.2570    -1.9470     1.7060 ho         1 N8V       0.401000
     27 H7           1.4340     2.1250    -0.2920 h1         1 N8V       0.047700
     28 H8           3.9680     2.0780    -1.1280 ha         1 N8V       0.161000
     29 H9           6.1030     0.1160     0.4110 h1         1 N8V       0.027700
     30 H10          5.7880     1.4460     1.5340 h1         1 N8V       0.027700
     31 H11          6.8760     2.1650    -0.3660 ho         1 N8V       0.405000
     32 H12          0.8180     0.6700    -2.2870 hn         1 N8V       0.360800
     33 H13          0.7840     3.0530    -2.2830 h1         1 N8V       0.033700
     34 H14          2.5240     3.0220    -2.6050 h1         1 N8V       0.033700
     35 H15          0.3720     1.8290    -4.3920 hc         1 N8V       0.048700
     36 H16          2.1110     1.7950    -4.7130 hc         1 N8V       0.048700
     37 H17          2.1540     4.2670    -4.7390 hc         1 N8V       0.041200
     38 H18          0.4150     4.3010    -4.4170 hc         1 N8V       0.041200
     39 H19          0.0010     3.0740    -6.5240 hc         1 N8V       0.041700
     40 H20          1.7400     3.0410    -6.8460 hc         1 N8V       0.041700
     41 H21          0.0430     5.5470    -6.5510 hc         1 N8V       0.040700
     42 H22          1.7820     5.5150    -6.8720 hc         1 N8V       0.040700
     43 H23          1.3710     4.2880    -8.9790 hc         1 N8V       0.041200
     44 H24         -0.3690     4.3200    -8.6580 hc         1 N8V       0.041200
     45 H25         -0.3290     6.7930    -8.6840 hc         1 N8V       0.039700
     46 H26          1.4110     6.7610    -9.0060 hc         1 N8V       0.039700
     47 H27          1.0220     5.5770   -11.1210 hc         1 N8V       0.032367
     48 H28          0.0830     7.0760   -11.0880 hc         1 N8V       0.032367
     49 H29         -0.7160     5.5260   -10.7920 hc         1 N8V       0.032367
@<TRIPOS>BOND
     1     1     2 1
     2    12     7 1
     3    12    13 1
     4     7     2 1
     5     7     8 1
     6     2     3 1
     7    13    14 1
     8    14    15 1
     9     4     3 1
    10     3     5 1
    11     8     9 2
    12    15    16 1
    13     9     5 1
    14     9    10 1
    15     5     6 1
    16    16    17 1
    17    17    18 1
    18    10    11 1
    19    18    19 1
    20    19    20 1
    21     1    21 1
    22     2    22 1
    23     3    23 1
    24     4    24 1
    25     5    25 1
    26     6    26 1
    27     7    27 1
    28     8    28 1
    29    10    29 1
    30    10    30 1
    31    11    31 1
    32    12    32 1
    33    13    33 1
    34    13    34 1
    35    14    35 1
    36    14    36 1
    37    15    37 1
    38    15    38 1
    39    16    39 1
    40    16    40 1
    41    17    41 1
    42    17    42 1
    43    18    43 1
    44    18    44 1
    45    19    45 1
    46    19    46 1
    47    20    47 1
    48    20    48 1
    49    20    49 1
@<TRIPOS>SUBSTRUCTURE
     1 N8V         1 TEMP              0 ****  ****    0 ROOT
