@<TRIPOS>MOLECULE
N8V
   49    49     1     0     0
SMALL
bcc


@<TRIPOS>ATOM
      1 O2           0.0000     0.0000     0.0000 oh         1 N8V      -0.592800
      2 C2           1.4300     0.0000     0.0000 c3         1 N8V       0.172100
      3 C3           1.9440     0.0000     1.4450 c3         1 N8V       0.157100
      4 O3           1.3460    -1.0770     2.1690 oh         1 N8V      -0.571800
      5 C4           3.4650    -0.1810     1.4170 c3         1 N8V       0.238300
      6 O4           3.7750    -1.5170     1.0190 oh         1 N8V      -0.565800
      7 C1           1.9440     1.2600    -0.6980 c3         1 N8V       0.149700
      8 C7           3.4210     1.4080    -0.4760 c2         1 N8V      -0.092200
      9 C5           4.0810     0.7840     0.4470 c2         1 N8V      -0.197400
     10 C6           5.5620     1.0440     0.5540 c3         1 N8V       0.283600
     11 O6           5.9540     1.9830    -0.4490 oh         1 N8V      -0.592800
     12 N8           1.6760     1.1630    -2.1390 n7         1 N8V      -0.576200
     13 C9           1.5880     2.4950    -2.7490 c3         1 N8V       0.137800
     14 C10          1.3080     2.3540    -4.2470 c3         1 N8V      -0.030400
     15 C11          1.2180     3.7420    -4.8830 c3         1 N8V      -0.027400
     16 C12          0.9370     3.6000    -6.3800 c3         1 N8V      -0.028400
     17 C13          0.8460     4.9890    -7.0160 c3         1 N8V      -0.029400
     18 C14          0.5670     4.8460    -8.5140 c3         1 N8V      -0.030400
     19 C15          0.4750     6.2350    -9.1500 c3         1 N8V      -0.028400
     20 C16          0.1960     6.0930   -10.6470 c3         1 N8V       0.005900
     21 H1          -0.3140    -0.8400    -0.2910 ho         1 N8V       0.400000
     22 H2           1.7990    -0.8780    -0.5170 h1         1 N8V       0.042700
     23 H3           1.7000     0.9440     1.9180 h1         1 N8V       0.013700
     24 H4           1.0480    -0.7650     3.0080 ho         1 N8V       0.387000
     25 H5           3.8640     0.0050     2.4070 h1         1 N8V      -0.003300
     26 H6           4.2570    -1.9470     1.7060 ho         1 N8V       0.387000
     27 H7           1.4340     2.1250    -0.2920 h1         1 N8V       0.027700
     28 H8           3.9680     2.0780    -1.1280 ha         1 N8V       0.134000
     29 H9           6.1030     0.1160     0.4110 h1         1 N8V      -0.010800
     30 H10          5.7880     1.4460     1.5340 h1         1 N8V      -0.010800
     31 H11          6.8760     2.1650    -0.3660 ho         1 N8V       0.391000
     32 H12          0.8180     0.6700    -2.2870 hn         1 N8V       0.260800
     33 H13          0.7840     3.0530    -2.2830 h1         1 N8V       0.009200
     34 H14          2.5240     3.0220    -2.6050 h1         1 N8V       0.009200
     35 H15          0.3720     1.8290    -4.3920 hc         1 N8V       0.019700
     36 H16          2.1110     1.7950    -4.7130 hc         1 N8V       0.019700
     37 H17          2.1540     4.2670    -4.7390 hc         1 N8V       0.014200
     38 H18          0.4150     4.3010    -4.4170 hc         1 N8V       0.014200
     39 H19          0.0010     3.0740    -6.5240 hc         1 N8V       0.015200
     40 H20          1.7400     3.0410    -6.8460 hc         1 N8V       0.015200
     41 H21          0.0430     5.5470    -6.5510 hc         1 N8V       0.014200
     42 H22          1.7820     5.5150    -6.8720 hc         1 N8V       0.014200
     43 H23          1.3710     4.2880    -8.9790 hc         1 N8V       0.014700
     44 H24         -0.3690     4.3200    -8.6580 hc         1 N8V       0.014700
     45 H25         -0.3290     6.7930    -8.6840 hc         1 N8V       0.011700
     46 H26          1.4110     6.7610    -9.0060 hc         1 N8V       0.011700
     47 H27          1.0220     5.5770   -11.1210 hc         1 N8V       0.000033
     48 H28          0.0830     7.0760   -11.0880 hc         1 N8V       0.000033
     49 H29         -0.7160     5.5260   -10.7920 hc         1 N8V       0.000033
@<TRIPOS>BOND
     1     1     2 1   
     2     1    21 1   
     3     2     3 1   
     4     2     7 1   
     5     2    22 1   
     6     3     4 1   
     7     3     5 1   
     8     3    23 1   
     9     4    24 1   
    10     5     6 1   
    11     5     9 1   
    12     5    25 1   
    13     6    26 1   
    14     7     8 1   
    15     7    12 1   
    16     7    27 1   
    17     8     9 2   
    18     8    28 1   
    19     9    10 1   
    20    10    11 1   
    21    10    29 1   
    22    10    30 1   
    23    11    31 1   
    24    12    13 1   
    25    12    32 1   
    26    13    14 1   
    27    13    33 1   
    28    13    34 1   
    29    14    15 1   
    30    14    35 1   
    31    14    36 1   
    32    15    16 1   
    33    15    37 1   
    34    15    38 1   
    35    16    17 1   
    36    16    39 1   
    37    16    40 1   
    38    17    18 1   
    39    17    41 1   
    40    17    42 1   
    41    18    19 1   
    42    18    43 1   
    43    18    44 1   
    44    19    20 1   
    45    19    45 1   
    46    19    46 1   
    47    20    47 1   
    48    20    48 1   
    49    20    49 1   
@<TRIPOS>SUBSTRUCTURE
     1 N8V         1 TEMP              0 ****  ****    0 ROOT
