@<TRIPOS>MOLECULE
molecule
   22    23     1     0     0
SMALL
bcc


@<TRIPOS>ATOM
      1 N1           0.0000     0.0000     0.0000 nv         1 N8Y      -1.015500
      2 C1           1.3790     0.0000     0.0000 ca         1 N8Y       0.740200
      3 N2           2.0600     0.0000     1.1370 nb         1 N8Y      -0.808000
      4 C2           3.3840    -0.0010     1.1500 ca         1 N8Y       0.707900
      5 N3           4.1090    -0.0000     0.0570 nb         1 N8Y      -0.757000
      6 C3           3.5210     0.0000    -1.1500 ca         1 N8Y       0.434600
      7 C4           2.1070    -0.0060    -1.2160 ca         1 N8Y      -0.282600
      8 C5           1.4700    -0.0070    -2.4620 ca         1 N8Y      -0.137000
      9 C6           2.2330    -0.0010    -3.6100 ca         1 N8Y       0.124100
     10 O1           1.6210    -0.0020    -4.8240 os         1 N8Y      -0.329900
     11 C7           2.4670     0.0040    -5.9760 c3         1 N8Y       0.127700
     12 C8           3.6270     0.0050    -3.5380 ca         1 N8Y      -0.178000
     13 C9           4.2680     0.0000    -2.3360 ca         1 N8Y      -0.141300
     14 H1          -0.5000     0.5050    -0.7050 hn         1 N8Y       0.445800
     15 H2          -0.5000    -0.5340     0.6830 hn         1 N8Y       0.445800
     16 H3           3.8910    -0.0010     2.1070 h5         1 N8Y       0.056100
     17 H4           0.4000    -0.1650    -2.5230 ha         1 N8Y       0.144000
     18 H5           3.0880     0.8920    -5.9630 h1         1 N8Y       0.042367
     19 H6           1.8580     0.0040    -6.8720 h1         1 N8Y       0.042367
     20 H7           3.0960    -0.8770    -5.9670 h1         1 N8Y       0.042367
     21 H8           4.2090     0.0100    -4.4520 ha         1 N8Y       0.140000
     22 H9           5.3500     0.0050    -2.2960 ha         1 N8Y       0.154000
@<TRIPOS>BOND
     1     5     4 ar
     2     5     6 ar
     3     4     3 ar
     4    13     6 ar
     5    13    12 ar
     6     6     7 ar
     7    12     9 ar
     8     3     2 ar
     9     7     2 ar
    10     7     8 ar
    11     2     1 1
    12     9     8 ar
    13     9    10 1
    14    10    11 1
    15     1    14 1
    16     1    15 1
    17     4    16 1
    18     8    17 1
    19    11    18 1
    20    11    19 1
    21    11    20 1
    22    12    21 1
    23    13    22 1
@<TRIPOS>SUBSTRUCTURE
     1 N8Y         1 TEMP              0 ****  ****    0 ROOT
