@<TRIPOS>MOLECULE
N91
   25    26     1     0     0
SMALL
bcc


@<TRIPOS>ATOM
      1 O10          0.0000     0.0000     0.0000 o          1 N91      -0.636100
      2 C10          1.2130     0.0000     0.0000 c          1 N91       0.557100
      3 C11          1.9660     0.0000     1.3050 c3         1 N91      -0.069100
      4 N5           1.8870    -0.0050    -1.1660 ns         1 N91      -0.035100
      5 C5           1.1920    -0.1220    -2.3770 ca         1 N91      -0.102400
      6 C4           1.6630     0.5210    -3.5060 ca         1 N91      -0.073000
      7 C9           0.9690     0.4020    -4.7110 ca         1 N91       0.079400
      8 N3           1.1700     0.8980    -5.9600 nc         1 N91      -0.528100
      9 C2           0.2220     0.4900    -6.7520 cd         1 N91       0.261700
     10 N1          -0.6530    -0.2950    -6.0680 na         1 N91       0.292700
     11 C1          -1.8500    -0.9400    -6.6130 c3         1 N91       0.005600
     12 C8          -0.2050    -0.3700    -4.7630 ca         1 N91      -0.266200
     13 C7          -0.6660    -1.0100    -3.6210 ca         1 N91      -0.071000
     14 C6           0.0310    -0.8910    -2.4370 ca         1 N91      -0.089000
     15 H111         2.7100    -0.7870     1.2930 hc         1 N91       0.023367
     16 H112         1.2740    -0.1710     2.1210 hc         1 N91       0.023367
     17 H113         2.4540     0.9570     1.4400 hc         1 N91       0.023367
     18 H5           2.8870     0.0390    -1.1660 hn         1 N91       0.166500
     19 H4           2.6170     1.0340    -3.4780 ha         1 N91       0.112000
     20 H6          -0.3220    -1.4040    -1.5500 ha         1 N91       0.139000
     21 H2           0.1410     0.7400    -7.8030 h5         1 N91       0.025800
     22 H11C        -1.7670    -2.0140    -6.4950 h1         1 N91       0.019700
     23 H12C        -1.9430    -0.6980    -7.6650 h1         1 N91       0.019700
     24 H13C        -2.7250    -0.5860    -6.0820 h1         1 N91       0.019700
     25 H7          -1.5680    -1.6090    -3.6610 ha         1 N91       0.102000
@<TRIPOS>BOND
     1     1     2 2   
     2     2     3 1   
     3     2     4 1   
     4     3    15 1   
     5     3    16 1   
     6     3    17 1   
     7     4     5 1   
     8     4    18 1   
     9     5     6 ar  
    10     5    14 ar  
    11     6     7 ar  
    12     6    19 1   
    13     7     8 1   
    14     7    12 ar  
    15     8     9 2   
    16     9    10 1   
    17     9    21 1   
    18    10    11 1   
    19    10    12 1   
    20    11    22 1   
    21    11    23 1   
    22    11    24 1   
    23    12    13 ar  
    24    13    14 ar  
    25    13    25 1   
    26    14    20 1   
@<TRIPOS>SUBSTRUCTURE
     1 N91         1 TEMP              0 ****  ****    0 ROOT
