@<TRIPOS>MOLECULE
molecule
   25    26     1     0     0
SMALL
bcc


@<TRIPOS>ATOM
      1 O10          0.0000     0.0000     0.0000 o          1 N91      -0.595100
      2 C10          1.2130     0.0000     0.0000 c          1 N91       0.657100
      3 C11          1.9660     0.0000     1.3050 c3         1 N91      -0.172100
      4 N5           1.8870    -0.0050    -1.1660 ns         1 N91      -0.478100
      5 C5           1.1920    -0.1220    -2.3770 ca         1 N91       0.040600
      6 C4           1.6630     0.5210    -3.5060 ca         1 N91      -0.108000
      7 C9           0.9690     0.4020    -4.7110 ca         1 N91       0.106400
      8 N3           1.1700     0.8980    -5.9600 nc         1 N91      -0.608100
      9 C2           0.2220     0.4900    -6.7520 cd         1 N91       0.431700
     10 N1          -0.6530    -0.2950    -6.0680 na         1 N91      -0.161300
     11 C1          -1.8500    -0.9400    -6.6130 c3         1 N91       0.040600
     12 C8          -0.2050    -0.3700    -4.7630 ca         1 N91      -0.103200
     13 C7          -0.6660    -1.0100    -3.6210 ca         1 N91      -0.113000
     14 C6           0.0310    -0.8910    -2.4370 ca         1 N91      -0.109000
     15 H111         2.7100    -0.7870     1.2930 hc         1 N91       0.062700
     16 H112         1.2740    -0.1710     2.1210 hc         1 N91       0.062700
     17 H113         2.4540     0.9570     1.4400 hc         1 N91       0.062700
     18 H5           2.8870     0.0390    -1.1660 hn         1 N91       0.323500
     19 H4           2.6170     1.0340    -3.4780 ha         1 N91       0.141000
     20 H6          -0.3220    -1.4040    -1.5500 ha         1 N91       0.162000
     21 H2           0.1410     0.7400    -7.8030 h5         1 N91       0.071800
     22 H11C        -1.7670    -2.0140    -6.4950 h1         1 N91       0.051367
     23 H12C        -1.9430    -0.6980    -7.6650 h1         1 N91       0.051367
     24 H13C        -2.7250    -0.5860    -6.0820 h1         1 N91       0.051367
     25 H7          -1.5680    -1.6090    -3.6610 ha         1 N91       0.130000
@<TRIPOS>BOND
     1     1     2 2
     2     2     3 1
     3     2     4 1
     4     4     5 1
     5     5     6 ar
     6     5    14 ar
     7     6     7 ar
     8     7     8 1
     9     7    12 ar
    10     8     9 2
    11     9    10 1
    12    10    11 1
    13    10    12 1
    14    12    13 ar
    15    13    14 ar
    16     3    15 1
    17     3    16 1
    18     3    17 1
    19     4    18 1
    20     6    19 1
    21    14    20 1
    22     9    21 1
    23    11    22 1
    24    11    23 1
    25    11    24 1
    26    13    25 1
@<TRIPOS>SUBSTRUCTURE
     1 N91         1 TEMP              0 ****  ****    0 ROOT
