@<TRIPOS>MOLECULE
molecule
   40    42     1     0     0
SMALL
bcc


@<TRIPOS>ATOM
      1 Cl2          0.0000     0.0000     0.0000 cl         1 N93      -0.158000
      2 C14          1.7360     0.0000     0.0000 ca         1 N93       0.529300
      3 C13          2.4140     0.0000     1.2090 ca         1 N93      -0.250300
      4 C12          3.8000    -0.0000     1.2130 ca         1 N93      -0.075000
      5 N3           2.3820    -0.0060    -1.1480 nb         1 N93      -0.657000
      6 C15          3.7130    -0.0060    -1.1980 ca         1 N93       0.637300
      7 C11          4.4600    -0.0000    -0.0080 ca         1 N93      -0.229500
      8 N2           5.7920    -0.0020    -0.3850 na         1 N93      -0.293300
      9 N4           4.6020    -0.0110    -2.2230 nc         1 N93      -0.731700
     10 C10          5.8240    -0.0090    -1.7480 cd         1 N93       0.694700
     11 N            6.9690    -0.0120    -2.5140 nh         1 N93      -0.786600
     12 C            8.2830    -0.0090    -1.8650 c3         1 N93       0.224100
     13 C1           6.8740    -0.0190    -3.9760 c3         1 N93       0.252800
     14 C2           6.8410     1.4210    -4.4910 c3         1 N93       0.130800
     15 N1           6.7450     1.4140    -5.9560 n7         1 N93      -0.808200
     16 C3           6.7110     2.7830    -6.4890 c3         1 N93       0.208100
     17 C4           6.6130     2.7360    -7.9920 ca         1 N93      -0.069300
     18 C9           7.7620     2.7080    -8.7590 ca         1 N93      -0.109000
     19 C8           7.6730     2.6600   -10.1390 ca         1 N93       0.035400
     20 Cl1          9.1170     2.6250   -11.1010 cl         1 N93      -0.097400
     21 C7           6.4340     2.6380   -10.7500 ca         1 N93      -0.116000
     22 C6           5.2820     2.6650    -9.9820 ca         1 N93       0.035400
     23 Cl           3.7250     2.6380   -10.7500 cl         1 N93      -0.097400
     24 C5           5.3740     2.7140    -8.6030 ca         1 N93      -0.109000
     25 H1           1.8700     0.1430     2.1350 ha         1 N93       0.152000
     26 H2           4.3530    -0.0000     2.1440 ha         1 N93       0.137000
     27 H3           6.5840     0.0000     0.2280 hn         1 N93       0.302700
     28 H5           9.0590    -0.0320    -2.6210 h1         1 N93       0.041033
     29 H6           8.3740    -0.8800    -1.2280 h1         1 N93       0.041033
     30 H7           8.3890     0.8880    -1.2680 h1         1 N93       0.041033
     31 H8           5.9680    -0.5310    -4.2760 h1         1 N93       0.071700
     32 H9           7.7330    -0.5310    -4.3910 h1         1 N93       0.071700
     33 H10          7.7480     1.9330    -4.1900 h1         1 N93       0.042200
     34 H11          5.9820     1.9330    -4.0750 h1         1 N93       0.042200
     35 H12          7.5310     0.9270    -6.3400 hn         1 N93       0.351800
     36 H14          5.8510     3.3050    -6.0870 h1         1 N93       0.044700
     37 H15          7.6160     3.3050    -6.2020 h1         1 N93       0.044700
     38 H16          8.7340     2.7440    -8.2800 ha         1 N93       0.150500
     39 H17          6.3630     2.6000   -11.8310 ha         1 N93       0.157000
     40 H18          4.4730     2.7360    -8.0010 ha         1 N93       0.150500
@<TRIPOS>BOND
     1    20    19 1
     2    19    21 ar
     3    19    18 ar
     4    21    22 ar
     5    23    22 1
     6    18    17 ar
     7    22    24 ar
     8    17    24 ar
     9    17    16 1
    10    16    15 1
    11    15    14 1
    12    14    13 1
    13    13    11 1
    14    12    11 1
    15    11    10 1
    16    10     8 1
    17    10     9 2
    18     8     7 1
    19     9     6 1
    20     7     6 ar
    21     7     4 ar
    22     6     5 ar
    23     4     3 ar
    24     5     2 ar
    25     3     2 ar
    26     2     1 1
    27     3    25 1
    28     4    26 1
    29     8    27 1
    30    12    28 1
    31    12    29 1
    32    12    30 1
    33    13    31 1
    34    13    32 1
    35    14    33 1
    36    14    34 1
    37    15    35 1
    38    16    36 1
    39    16    37 1
    40    18    38 1
    41    21    39 1
    42    24    40 1
@<TRIPOS>SUBSTRUCTURE
     1 N93         1 TEMP              0 ****  ****    0 ROOT
