@<TRIPOS>MOLECULE
N9H
   53    55     1     0     0
SMALL
bcc


@<TRIPOS>ATOM
      1 C1           0.0000     0.0000     0.0000 ca         1 N9H       0.102900
      2 C2           1.3810     0.0000     0.0000 ca         1 N9H      -0.104000
      3 C3           2.0770     0.0000     1.2120 ca         1 N9H      -0.134900
      4 C4           1.3670    -0.0050     2.4170 ca         1 N9H       0.129900
      5 C5          -0.0140     0.0020     2.4020 ca         1 N9H      -0.105000
      6 C6          -0.6970     0.0010     1.1990 ca         1 N9H      -0.082000
      7 C10          3.5510    -0.0010     1.2190 ce         1 N9H       0.385900
      8 N1           4.2890    -0.0000     2.2750 n2         1 N9H      -0.504300
      9 N12          5.6570    -0.0020     2.0130 n          1 N9H       0.033200
     10 C13          5.8630     0.0050     0.5560 c3         1 N9H       0.083700
     11 C14          4.4290    -0.0010    -0.0110 c3         1 N9H      -0.105700
     12 C17          6.6000     1.2450     0.1220 ca         1 N9H      -0.116300
     13 C19          6.5380     2.3910     0.8930 ca         1 N9H      -0.088500
     14 C20          7.2140     3.5300     0.4940 ca         1 N9H      -0.085000
     15 C21          7.9530     3.5210    -0.6740 ca         1 N9H      -0.078000
     16 C22          8.0170     2.3750    -1.4430 ca         1 N9H      -0.085000
     17 C23          7.3440     1.2360    -1.0430 ca         1 N9H      -0.088500
     18 C29          6.6330    -0.0020     2.9430 c          1 N9H       0.613100
     19 N30          6.3190     0.0980     4.2500 ns         1 N9H      -0.194900
     20 C31          7.3790     0.0970     5.2610 c3         1 N9H       0.058000
     21 O39          7.7960    -0.0920     2.6030 o          1 N9H      -0.697100
     22 F40          2.0320    -0.0050     3.5940 f          1 N9H      -0.114900
     23 F41         -0.6740    -0.0010    -1.1700 f          1 N9H      -0.115900
     24 C7           6.6190    -1.2520     0.1230 c3         1 N9H      -0.037400
     25 C8           5.9630    -2.4840     0.7490 c3         1 N9H      -0.051400
     26 C9           6.7570     0.2210     6.6540 c3         1 N9H      -0.007100
     27 C11          6.7880    -3.7280     0.4130 c3         1 N9H      -0.050200
     28 N2           6.1580    -4.9110     1.0150 nz         1 N9H       0.085400
     29 H2           1.9240     0.0020    -0.9380 ha         1 N9H       0.126000
     30 H5          -0.5650    -0.0000     3.3350 ha         1 N9H       0.133000
     31 H6          -1.7800     0.0040     1.1930 ha         1 N9H       0.132000
     32 H141         4.2530     0.8900    -0.6020 hc         1 N9H       0.050200
     33 H142         4.2580    -0.8940    -0.5990 hc         1 N9H       0.050200
     34 H19          5.9580     2.3980     1.8080 ha         1 N9H       0.103500
     35 H20          7.1650     4.4280     1.0970 ha         1 N9H       0.110500
     36 H21          8.4820     4.4130    -0.9870 ha         1 N9H       0.112000
     37 H22          8.5980     2.3670    -2.3580 ha         1 N9H       0.110500
     38 H23          7.3940     0.3370    -1.6460 ha         1 N9H       0.103500
     39 HN30         5.3600     0.1680     4.5310 hn         1 N9H       0.197500
     40 H311         8.0440     0.9340     5.0870 h1         1 N9H       0.024200
     41 H312         7.9380    -0.8280     5.1960 h1         1 N9H       0.024200
     42 H71          6.5900    -1.3370    -0.9570 hc         1 N9H       0.056200
     43 H72          7.6490    -1.1850     0.4520 hc         1 N9H       0.056200
     44 H81          4.9600    -2.5980     0.3560 hc         1 N9H       0.039700
     45 H82          5.9170    -2.3610     1.8250 hc         1 N9H       0.039700
     46 H91          6.1950     1.1450     6.7180 hc         1 N9H       0.013033
     47 H92          6.0940    -0.6170     6.8290 hc         1 N9H       0.013033
     48 H93          7.5420     0.2240     7.4000 hc         1 N9H       0.013033
     49 H111         6.8330    -3.8510    -0.6630 hx         1 N9H       0.088200
     50 H112         7.7910    -3.6140     0.8060 hx         1 N9H       0.088200
     51 HN21         5.2310    -5.0150     0.6540 hn         1 N9H       0.222800
     52 HN22         6.6960    -5.7250     0.7920 hn         1 N9H       0.222800
     53 H231         6.1190    -4.7990     2.0090 hn         1 N9H       0.222800
@<TRIPOS>BOND
     1     1     2 ar  
     2     1     6 ar  
     3     1    23 1   
     4     2     3 ar  
     5     2    29 1   
     6     3     4 ar  
     7     3     7 1   
     8     4     5 ar  
     9     4    22 1   
    10     5     6 ar  
    11     5    30 1   
    12     6    31 1   
    13     7     8 2   
    14     7    11 1   
    15     8     9 1   
    16     9    10 1   
    17     9    18 1   
    18    10    11 1   
    19    10    12 1   
    20    10    24 1   
    21    11    32 1   
    22    11    33 1   
    23    12    13 ar  
    24    12    17 ar  
    25    13    14 ar  
    26    13    34 1   
    27    14    15 ar  
    28    14    35 1   
    29    15    16 ar  
    30    15    36 1   
    31    16    17 ar  
    32    16    37 1   
    33    17    38 1   
    34    18    19 1   
    35    18    21 2   
    36    19    20 1   
    37    19    39 1   
    38    20    26 1   
    39    20    40 1   
    40    20    41 1   
    41    24    25 1   
    42    24    42 1   
    43    24    43 1   
    44    25    27 1   
    45    25    44 1   
    46    25    45 1   
    47    26    46 1   
    48    26    47 1   
    49    26    48 1   
    50    27    28 1   
    51    27    49 1   
    52    27    50 1   
    53    28    51 1   
    54    28    52 1   
    55    28    53 1   
@<TRIPOS>SUBSTRUCTURE
     1 N9H         1 TEMP              0 ****  ****    0 ROOT
