@<TRIPOS>MOLECULE
molecule
   33    33     1     0     0
SMALL
bcc


@<TRIPOS>ATOM
      1 C1           0.0000     0.0000     0.0000 c3         1 NA1       0.334900
      2 C2           1.5330     0.0000     0.0000 c3         1 NA1       0.103700
      3 C3           2.0380     0.0000     1.4470 c3         1 NA1       0.130100
      4 C4           1.4080    -1.1240     2.2760 c3         1 NA1       0.110100
      5 C5          -0.1190    -1.1520     2.1260 c3         1 NA1       0.139100
      6 C6          -0.8210    -0.0630     2.9330 c3         1 NA1       0.102400
      7 C7           3.2520    -1.0900    -1.4400 c          1 NA1       0.685100
      8 C8           3.5940    -2.3650    -2.1360 c3         1 NA1      -0.181100
      9 N2           2.0540    -1.1260    -0.7470 ns         1 NA1      -0.558900
     10 O1          -0.4660    -0.0410    -1.3480 oh         1 NA1      -0.568800
     11 O3           3.4560    -0.0870     1.5010 oh         1 NA1      -0.566800
     12 O4           1.9040    -2.3910     1.8350 oh         1 NA1      -0.582800
     13 O5          -0.5110    -1.1070     0.7450 os         1 NA1      -0.424600
     14 O6          -0.5200    -0.2520     4.3030 os         1 NA1      -0.422600
     15 C9          -1.1430     0.7310     5.1210 c3         1 NA1       0.125700
     16 O7           4.0090    -0.1310    -1.5290 o          1 NA1      -0.604100
     17 H1C1        -0.3450     0.9160     0.4630 h2         1 NA1       0.016700
     18 H2           1.8700     0.9130    -0.4750 h1         1 NA1       0.082700
     19 H3           1.7440     0.9410     1.8960 h1         1 NA1       0.025700
     20 H4           1.6600    -0.9800     3.3200 h1         1 NA1       0.058700
     21 H5          -0.4540    -2.1060     2.5160 h1         1 NA1       0.097700
     22 H6C1        -0.4700     0.9110     2.6130 h1         1 NA1       0.032200
     23 H6C2        -1.8920    -0.1310     2.7820 h1         1 NA1       0.032200
     24 H8C1         2.7830    -2.6430    -2.7990 hc         1 NA1       0.060033
     25 H8C2         3.7450    -3.1480    -1.4020 hc         1 NA1       0.060033
     26 H8C3         4.5010    -2.2300    -2.7120 hc         1 NA1       0.060033
     27 HA           1.5220    -1.9730    -0.7630 hn         1 NA1       0.334500
     28 HO1         -1.2450     0.4840    -1.4270 ho         1 NA1       0.410000
     29 HB           3.7940     0.6140     2.0340 ho         1 NA1       0.401000
     30 HC           2.2210    -2.8800     2.5760 ho         1 NA1       0.404000
     31 H9C1        -0.7890     1.7150     4.8360 h1         1 NA1       0.034033
     32 H9C2        -2.2170     0.6820     4.9900 h1         1 NA1       0.034033
     33 H9C3        -0.8970     0.5460     6.1600 h1         1 NA1       0.034033
@<TRIPOS>BOND
     1     1     2 1
     2     1    10 1
     3     1    13 1
     4     1    17 1
     5     2     3 1
     6     2     9 1
     7     2    18 1
     8     3     4 1
     9     3    11 1
    10     3    19 1
    11     4     5 1
    12     4    12 1
    13     4    20 1
    14     5     6 1
    15     5    13 1
    16     5    21 1
    17     6    14 1
    18     6    22 1
    19     6    23 1
    20     7     8 1
    21     7     9 1
    22     7    16 2
    23     8    24 1
    24     8    25 1
    25     8    26 1
    26     9    27 1
    27    10    28 1
    28    11    29 1
    29    12    30 1
    30    14    15 1
    31    15    31 1
    32    15    32 1
    33    15    33 1
@<TRIPOS>SUBSTRUCTURE
     1 NA1         1 TEMP              0 ****  ****    0 ROOT
