@<TRIPOS>MOLECULE
NA3
   25    25     1     0     0
SMALL
bcc


@<TRIPOS>ATOM
      1 C7           0.0000     0.0000     0.0000 ca         1 NA3       0.004000
      2 C8           1.3850     0.0000     0.0000 ca         1 NA3      -0.103200
      3 C9           2.0620     0.0000     1.2080 ca         1 NA3       0.422200
      4 N2           1.4080     0.0060     2.3540 nb         1 NA3      -0.591000
      5 C10          0.0920     0.0110     2.4050 ca         1 NA3       0.432200
      6 C6          -0.6630     0.0120     1.2320 ca         1 NA3      -0.233900
      7 Br1          2.3420    -0.0080    -1.6310 br         1 NA3      -0.141100
      8 C5          -2.1410     0.0180     1.2900 c          1 NA3       0.598700
      9 O4          -2.7900     0.0190     0.2620 o          1 NA3      -0.678100
     10 N1          -2.7680     0.0240     2.4830 ns         1 NA3      -0.090900
     11 C3          -4.2320     0.0310     2.5400 c3         1 NA3      -0.095300
     12 C2          -4.6930    -0.5730     3.8680 c3         1 NA3      -0.139400
     13 C4          -4.7330     1.4480     2.4320 c          1 NA3       0.650900
     14 O3          -3.9480     2.3590     2.3190 o          1 NA3      -0.591100
     15 C1          -4.2990    -2.0270     3.9220 c          1 NA3       0.971600
     16 O2          -4.6010    -2.7650     5.0020 o          1 NA3      -0.887800
     17 O1          -3.7090    -2.5280     2.9940 o          1 NA3      -0.887800
     18 H7          -0.5550     0.0000    -0.9300 ha         1 NA3       0.142000
     19 H9           3.1450    -0.0020     1.2120 h4         1 NA3      -0.018900
     20 H10         -0.4080     0.0180     3.3660 h4         1 NA3      -0.006900
     21 HN1         -2.2350     0.0660     3.3280 hn         1 NA3       0.172500
     22 H3          -4.6280    -0.5550     1.7200 h1         1 NA3       0.092700
     23 H21         -4.2260    -0.0420     4.6880 hc         1 NA3       0.016200
     24 H22         -5.7700    -0.4880     3.9490 hc         1 NA3       0.016200
     25 H4          -5.7980     1.6460     2.4180 h4         1 NA3      -0.052800
@<TRIPOS>BOND
     1     1     2 ar  
     2     1     6 ar  
     3     1    18 1   
     4     2     3 ar  
     5     2     7 1   
     6     3     4 ar  
     7     3    19 1   
     8     4     5 ar  
     9     5     6 ar  
    10     5    20 1   
    11     6     8 1   
    12     8     9 2   
    13     8    10 1   
    14    10    11 1   
    15    10    21 1   
    16    11    12 1   
    17    11    13 1   
    18    11    22 1   
    19    12    15 1   
    20    12    23 1   
    21    12    24 1   
    22    13    14 2   
    23    13    25 1   
    24    15    16 1   
    25    15    17 1   
@<TRIPOS>SUBSTRUCTURE
     1 NA3         1 TEMP              0 ****  ****    0 ROOT
