@<TRIPOS>MOLECULE
NA4
   37    38     1     0     0
SMALL
bcc


@<TRIPOS>ATOM
      1 C7           0.0000     0.0000     0.0000 ca         1 NA4      -0.013000
      2 C8           1.3950     0.0000     0.0000 cp         1 NA4      -0.135300
      3 C9           2.0720     0.0000     1.2190 ca         1 NA4       0.397200
      4 N2           1.4130     0.0070     2.3600 nb         1 NA4      -0.609000
      5 C10          0.0970     0.0130     2.4050 ca         1 NA4       0.402200
      6 C6          -0.6600     0.0130     1.2320 ca         1 NA4      -0.248900
      7 C5          -2.1370     0.0190     1.2930 c          1 NA4       0.607700
      8 O4          -2.7880     0.0180     0.2650 o          1 NA4      -0.683100
      9 N1          -2.7630     0.0250     2.4860 ns         1 NA4      -0.108900
     10 C3          -4.2270     0.0310     2.5450 c3         1 NA4      -0.091300
     11 C2          -4.6860    -0.5720     3.8750 c3         1 NA4      -0.139400
     12 C4          -4.7280     1.4490     2.4380 c          1 NA4       0.646900
     13 O3          -3.9440     2.3600     2.3240 o          1 NA4      -0.586100
     14 C1          -4.2910    -2.0260     3.9300 c          1 NA4       0.971600
     15 O2          -3.7030    -2.5270     3.0000 o          1 NA4      -0.889300
     16 O1          -4.5930    -2.7630     5.0100 o          1 NA4      -0.889300
     17 C15          2.4020     0.7620    -3.5380 ca         1 NA4      -0.079000
     18 C16          1.7020     0.7630    -2.3530 ca         1 NA4      -0.126000
     19 C11          2.1480    -0.0070    -1.2790 cp         1 NA4      -0.068000
     20 C12          3.2950    -0.7890    -1.4080 ca         1 NA4      -0.126000
     21 C13          3.9940    -0.7970    -2.5940 ca         1 NA4      -0.079000
     22 C14          3.5530    -0.0220    -3.6690 ca         1 NA4      -0.102600
     23 C17          4.3010    -0.0290    -4.9410 c          1 NA4       0.977200
     24 O5           3.8740     0.7190    -5.9770 o          1 NA4      -0.892300
     25 O6           5.3010    -0.7090    -5.0540 o          1 NA4      -0.892300
     26 H7          -0.5560    -0.0000    -0.9290 ha         1 NA4       0.138000
     27 H9           3.1560    -0.0020     1.2280 h4         1 NA4      -0.020900
     28 H10         -0.4050     0.0210     3.3650 h4         1 NA4      -0.019900
     29 HN1         -2.2290     0.0570     3.3310 hn         1 NA4       0.174500
     30 H3          -4.6250    -0.5550     1.7260 h1         1 NA4       0.090700
     31 H21         -4.2180    -0.0390     4.6940 hc         1 NA4       0.012200
     32 H22         -5.7630    -0.4870     3.9570 hc         1 NA4       0.012200
     33 H4          -5.7930     1.6480     2.4370 h4         1 NA4      -0.061800
     34 H12          3.6370    -1.3910    -0.5740 ha         1 NA4       0.094000
     35 H13          4.8850    -1.4050    -2.6940 ha         1 NA4       0.122000
     36 H15          2.0580     1.3620    -4.3720 ha         1 NA4       0.122000
     37 H16          0.8110     1.3700    -2.2510 ha         1 NA4       0.094000
@<TRIPOS>BOND
     1     1     2 ar  
     2     1     6 ar  
     3     1    26 1   
     4     2     3 ar  
     5     2    19 1   
     6     3     4 ar  
     7     3    27 1   
     8     4     5 ar  
     9     5     6 ar  
    10     5    28 1   
    11     6     7 1   
    12     7     8 2   
    13     7     9 1   
    14     9    10 1   
    15     9    29 1   
    16    10    11 1   
    17    10    12 1   
    18    10    30 1   
    19    11    14 1   
    20    11    31 1   
    21    11    32 1   
    22    12    13 2   
    23    12    33 1   
    24    14    15 1   
    25    14    16 1   
    26    17    18 ar  
    27    17    22 ar  
    28    17    36 1   
    29    18    19 ar  
    30    18    37 1   
    31    19    20 ar  
    32    20    21 ar  
    33    20    34 1   
    34    21    22 ar  
    35    21    35 1   
    36    22    23 1   
    37    23    24 1   
    38    23    25 1   
@<TRIPOS>SUBSTRUCTURE
     1 NA4         1 TEMP              0 ****  ****    0 ROOT
