@<TRIPOS>MOLECULE
NA9
   66    67     1     0     0
SMALL
bcc


@<TRIPOS>ATOM
      1 C1           0.0000     0.0000     0.0000 ca         1 NA9      -0.185300
      2 C2           1.3860     0.0000     0.0000 ca         1 NA9       0.259000
      3 N3           2.1420     0.0000     1.1200 nb         1 NA9      -0.575000
      4 C4           1.4740    -0.0000     2.2950 ca         1 NA9       0.430200
      5 C5           0.0990    -0.0010     2.3900 ca         1 NA9      -0.187600
      6 C6          -0.6510    -0.0000     1.2280 ca         1 NA9       0.004000
      7 C7          -0.5730    -0.0010     3.7330 c3         1 NA9       0.104300
      8 C8           2.1180     0.0000    -1.2550 ce         1 NA9       0.079200
      9 N9           1.5260     0.0000    -2.5140 nz         1 NA9       0.193400
     10 N10          3.4340     0.0010    -1.2020 n2         1 NA9      -0.489100
     11 N11         -0.8160    -1.3400     4.2160 ns         1 NA9      -0.241900
     12 C12         -1.9860    -2.0350     3.9430 c          1 NA9       0.552100
     13 C13         -1.9680    -3.4410     4.5290 c3         1 NA9      -0.030300
     14 O14         -2.9220    -1.5980     3.2760 o          1 NA9      -0.570100
     15 C15         -0.8130    -4.2500     3.9590 c3         1 NA9      -0.206100
     16 N17         -3.2510    -4.0670     4.2350 n          1 NA9      -0.185800
     17 C18         -3.4650    -4.8460     3.0930 c          1 NA9       0.585100
     18 C19         -2.2980    -4.9830     2.1120 c3         1 NA9       0.034500
     19 O20         -4.5500    -5.3810     2.8380 o          1 NA9      -0.562100
     20 N21         -2.8550    -4.9680     0.7800 n7         1 NA9      -0.570200
     21 C22         -3.5650    -3.7180     0.5130 c3         1 NA9       0.030800
     22 C23         -4.0900    -3.7560    -0.8890 c          1 NA9       0.981600
     23 O24         -4.7380    -2.5960    -1.1720 o          1 NA9      -0.890800
     24 O25         -3.9720    -4.6760    -1.6850 o          1 NA9      -0.890800
     25 C26         -1.5280    -6.2810     2.3730 c3         1 NA9      -0.049400
     26 C27         -0.3330    -6.4460     1.4360 c3         1 NA9       0.029300
     27 C28          0.6260    -5.2550     1.5660 c3         1 NA9      -0.152900
     28 C29          1.8570    -5.4230     0.6770 c3         1 NA9       0.012100
     29 C30          2.5740    -6.7410     0.9520 c3         1 NA9      -0.023400
     30 C31          1.6280    -7.9320     0.8270 c3         1 NA9       0.012100
     31 C32          0.3970    -7.7680     1.7160 c3         1 NA9      -0.152900
     32 H1          -0.5590     0.0000    -0.9280 ha         1 NA9       0.118000
     33 H4           2.0510    -0.0010     3.2120 h4         1 NA9      -0.007900
     34 H6          -1.7330    -0.0010     1.2750 ha         1 NA9       0.164000
     35 H71          0.0580     0.5210     4.4420 h1         1 NA9       0.038700
     36 H72         -1.5190     0.5210     3.6520 h1         1 NA9       0.038700
     37 HN91         0.9700    -0.8250    -2.6210 hn         1 NA9       0.222800
     38 HN92         2.2370     0.0170    -3.2180 hn         1 NA9       0.222800
     39 HN10         3.9000     0.0010    -0.3160 hn         1 NA9       0.395400
     40 HN11        -0.1120    -1.7840     4.7720 hn         1 NA9       0.183500
     41 H13         -1.8500    -3.3710     5.6030 h1         1 NA9       0.036700
     42 H151        -0.6660    -4.2020     5.0320 hc         1 NA9       0.078033
     43 H152        -0.1010    -3.6770     3.3790 hc         1 NA9       0.078033
     44 H153        -1.0880    -5.2290     3.5840 hc         1 NA9       0.078033
     45 H161        -3.9670    -3.0530     5.9150 h1         1 NA9       0.009033
     46 H162        -5.1990    -3.4910     4.7230 h1         1 NA9       0.009033
     47 H163        -4.5000    -4.7340     5.7710 h1         1 NA9       0.009033
     48 H19         -1.6290    -4.1400     2.2310 h1         1 NA9       0.018700
     49 HN21        -2.0780    -4.3550     0.9310 hn         1 NA9       0.250800
     50 H221        -4.3890    -3.6120     1.2070 h1         1 NA9       0.011200
     51 H222        -2.8850    -2.8820     0.6240 h1         1 NA9       0.011200
     52 H261        -2.1990    -7.1210     2.2360 hc         1 NA9       0.050700
     53 H262        -1.1730    -6.2790     3.3970 hc         1 NA9       0.050700
     54 H27         -0.6980    -6.4740     0.4160 hc         1 NA9       0.044700
     55 H281         0.0580    -5.3320     0.6460 hc         1 NA9       0.049700
     56 H282         0.3400    -4.3000     1.9880 hc         1 NA9       0.049700
     57 H291         1.5480    -5.3990    -0.3610 hc         1 NA9       0.002700
     58 H292         2.5410    -4.6040     0.8660 hc         1 NA9       0.002700
     59 H301         3.3820    -6.8580     0.2390 hc         1 NA9       0.008700
     60 H302         2.9810    -6.7190     1.9550 hc         1 NA9       0.008700
     61 H311         1.3080    -8.0210    -0.2040 hc         1 NA9       0.002700
     62 H312         2.1550    -8.8320     1.1190 hc         1 NA9       0.002700
     63 H321         0.7070    -7.7860     2.7540 hc         1 NA9       0.049700
     64 H322        -0.2830    -8.5910     1.5310 hc         1 NA9       0.049700
     65 C16         -4.2970    -3.8200     5.2250 c3         1 NA9       0.093300
     66 H93          0.9430     0.8090    -2.6090 hn         1 NA9       0.222800
@<TRIPOS>BOND
     1     1     2 ar  
     2     1     6 ar  
     3     1    32 1   
     4     2     3 ar  
     5     2     8 1   
     6     3     4 ar  
     7     4     5 ar  
     8     4    33 1   
     9     5     6 ar  
    10     5     7 1   
    11     6    34 1   
    12     7    11 1   
    13     7    35 1   
    14     7    36 1   
    15     8     9 1   
    16     8    10 2   
    17     9    37 1   
    18     9    38 1   
    19     9    66 1   
    20    10    39 1   
    21    11    12 1   
    22    11    40 1   
    23    12    13 1   
    24    12    14 2   
    25    13    15 1   
    26    13    16 1   
    27    13    41 1   
    28    15    42 1   
    29    15    43 1   
    30    15    44 1   
    31    16    17 1   
    32    16    65 1   
    33    17    18 1   
    34    17    19 2   
    35    18    20 1   
    36    18    25 1   
    37    18    48 1   
    38    20    21 1   
    39    20    49 1   
    40    21    22 1   
    41    21    50 1   
    42    21    51 1   
    43    22    23 1   
    44    22    24 1   
    45    25    26 1   
    46    25    52 1   
    47    25    53 1   
    48    26    27 1   
    49    26    31 1   
    50    26    54 1   
    51    27    28 1   
    52    27    55 1   
    53    27    56 1   
    54    28    29 1   
    55    28    57 1   
    56    28    58 1   
    57    29    30 1   
    58    29    59 1   
    59    29    60 1   
    60    30    31 1   
    61    30    61 1   
    62    30    62 1   
    63    31    63 1   
    64    31    64 1   
    65    45    65 1   
    66    46    65 1   
    67    47    65 1   
@<TRIPOS>SUBSTRUCTURE
     1 NA9         1 TEMP              0 ****  ****    0 ROOT
