@<TRIPOS>MOLECULE
molecule
   66    67     1     0     0
SMALL
bcc


@<TRIPOS>ATOM
      1 C1           0.0000     0.0000     0.0000 ca         1 NA9      -0.224300
      2 C2           1.3860     0.0000     0.0000 ca         1 NA9       0.314000
      3 N3           2.1420     0.0000     1.1200 nb         1 NA9      -0.591000
      4 C4           1.4740    -0.0000     2.2950 ca         1 NA9       0.409200
      5 C5           0.0990    -0.0010     2.3900 ca         1 NA9      -0.176600
      6 C6          -0.6510    -0.0000     1.2280 ca         1 NA9      -0.043000
      7 C7          -0.5730    -0.0010     3.7330 c3         1 NA9       0.148300
      8 C8           2.1180     0.0000    -1.2550 ce         1 NA9       0.424200
      9 N9           1.5260     0.0000    -2.5140 nz         1 NA9      -0.803600
     10 N10          3.4340     0.0010    -1.2020 n2         1 NA9      -0.645100
     11 N11         -0.8160    -1.3400     4.2160 ns         1 NA9      -0.609900
     12 C12         -1.9860    -2.0350     3.9430 c          1 NA9       0.628100
     13 C13         -1.9680    -3.4410     4.5290 c3         1 NA9       0.046700
     14 O14         -2.9220    -1.5980     3.2760 o          1 NA9      -0.542100
     15 C15         -0.8130    -4.2500     3.9590 c3         1 NA9      -0.206100
     16 N17         -3.2510    -4.0670     4.2350 n          1 NA9      -0.504800
     17 C18         -3.4650    -4.8460     3.0930 c          1 NA9       0.656100
     18 C19         -2.2980    -4.9830     2.1120 c3         1 NA9       0.044500
     19 O20         -4.5500    -5.3810     2.8380 o          1 NA9      -0.537100
     20 N21         -2.8550    -4.9680     0.7800 n7         1 NA9      -0.643200
     21 C22         -3.5650    -3.7180     0.5130 c3         1 NA9      -0.005200
     22 C23         -4.0900    -3.7560    -0.8890 c          1 NA9       0.900600
     23 O24         -4.7380    -2.5960    -1.1720 o          1 NA9      -0.838800
     24 O25         -3.9720    -4.6760    -1.6850 o          1 NA9      -0.838800
     25 C26         -1.5280    -6.2810     2.3730 c3         1 NA9      -0.078400
     26 C27         -0.3330    -6.4460     1.4360 c3         1 NA9      -0.011700
     27 C28          0.6260    -5.2550     1.5660 c3         1 NA9      -0.169900
     28 C29          1.8570    -5.4230     0.6770 c3         1 NA9      -0.056400
     29 C30          2.5740    -6.7410     0.9520 c3         1 NA9      -0.074400
     30 C31          1.6280    -7.9320     0.8270 c3         1 NA9      -0.056400
     31 C32          0.3970    -7.7680     1.7160 c3         1 NA9      -0.169900
     32 H1          -0.5590     0.0000    -0.9280 ha         1 NA9       0.140000
     33 H4           2.0510    -0.0010     3.2120 h4         1 NA9       0.040100
     34 H6          -1.7330    -0.0010     1.2750 ha         1 NA9       0.199000
     35 H71         -1.5190     0.5210     3.6520 h1         1 NA9       0.070700
     36 H72          0.0580     0.5200     4.4420 h1         1 NA9       0.070700
     37 HN91         0.9950    -0.8400    -2.6340 hn         1 NA9       0.466800
     38 HN92         0.9200     0.7930    -2.5990 hn         1 NA9       0.466800
     39 HN10         3.9710     0.0010    -2.0460 hn         1 NA9       0.417400
     40 HN11        -0.1120    -1.7850     4.7710 hn         1 NA9       0.318500
     41 H13         -1.8500    -3.3710     5.6030 h1         1 NA9       0.058700
     42 H151        -0.6660    -4.2020     5.0320 hc         1 NA9       0.086033
     43 H152        -0.1000    -3.6770     3.3790 hc         1 NA9       0.086033
     44 H153        -1.0880    -5.2290     3.5840 hc         1 NA9       0.086033
     45 H161        -3.9700    -3.0490     5.9110 h1         1 NA9       0.040033
     46 H162        -4.4960    -4.7320     5.7740 h1         1 NA9       0.040033
     47 H163        -5.2000    -3.4970     4.7220 h1         1 NA9       0.040033
     48 H19         -1.6290    -4.1400     2.2310 h1         1 NA9       0.016700
     49 HN21        -2.0780    -4.3550     0.9310 hn         1 NA9       0.293800
     50 H221        -4.3890    -3.6120     1.2070 h1         1 NA9       0.036200
     51 H222        -2.8850    -2.8820     0.6240 h1         1 NA9       0.036200
     52 H261        -1.1730    -6.2790     3.3970 hc         1 NA9       0.073700
     53 H262        -2.1990    -7.1210     2.2360 hc         1 NA9       0.073700
     54 H27         -0.6980    -6.4740     0.4160 hc         1 NA9       0.063700
     55 H281         0.0580    -5.3320     0.6460 hc         1 NA9       0.067950
     56 H282         0.3400    -4.3000     1.9880 hc         1 NA9       0.067950
     57 H291         2.5410    -4.6040     0.8660 hc         1 NA9       0.031700
     58 H292         1.5480    -5.3990    -0.3610 hc         1 NA9       0.031700
     59 H301         2.9810    -6.7190     1.9550 hc         1 NA9       0.035700
     60 H302         3.3820    -6.8580     0.2390 hc         1 NA9       0.035700
     61 H311         2.1550    -8.8320     1.1190 hc         1 NA9       0.031700
     62 H312         1.3080    -8.0210    -0.2040 hc         1 NA9       0.031700
     63 H321        -0.2830    -8.5910     1.5310 hc         1 NA9       0.067950
     64 H322         0.7070    -7.7860     2.7540 hc         1 NA9       0.067950
     65 C16         -4.2970    -3.8200     5.2250 c3         1 NA9       0.099300
     66 H93          2.2350     0.0480    -3.2180 hn         1 NA9       0.466800
@<TRIPOS>BOND
     1     1     6 ar
     2     1     2 ar
     3     1    32 1
     4     2     3 ar
     5     2     8 1
     6     3     4 ar
     7     4     5 ar
     8     4    33 1
     9     5     7 1
    10     5     6 ar
    11     6    34 1
    12     7    11 1
    13     7    35 1
    14     7    36 1
    15     8     9 1
    16     8    10 2
    17     9    37 1
    18     9    38 1
    19    10    39 1
    20    11    12 1
    21    11    40 1
    22    12    14 2
    23    12    13 1
    24    13    15 1
    25    13    16 1
    26    13    41 1
    27    15    42 1
    28    15    43 1
    29    15    44 1
    30    65    16 1
    31    65    45 1
    32    65    46 1
    33    65    47 1
    34    16    17 1
    35    17    19 2
    36    17    18 1
    37    18    20 1
    38    18    25 1
    39    18    48 1
    40    20    21 1
    41    20    49 1
    42    21    22 1
    43    21    50 1
    44    21    51 1
    45    22    24 1
    46    22    23 1
    47    25    26 1
    48    25    52 1
    49    25    53 1
    50    26    27 1
    51    26    31 1
    52    26    54 1
    53    27    28 1
    54    27    55 1
    55    27    56 1
    56    28    29 1
    57    28    57 1
    58    28    58 1
    59    29    30 1
    60    29    59 1
    61    29    60 1
    62    30    31 1
    63    30    61 1
    64    30    62 1
    65    31    63 1
    66    31    64 1
    67    66     9 1
@<TRIPOS>SUBSTRUCTURE
     1 NA9         1 TEMP              0 ****  ****    0 ROOT
