@<TRIPOS>MOLECULE
NAB
   33    35     1     0     0
SMALL
bcc


@<TRIPOS>ATOM
      1 C1           0.0000     0.0000     0.0000 ca         1 NAB       0.045400
      2 C2           1.4100     0.0000     0.0000 ca         1 NAB      -0.027600
      3 C3           2.0990     0.0000     1.2130 ca         1 NAB      -0.088000
      4 C4           1.4000    -0.0050     2.4020 ca         1 NAB      -0.104000
      5 C5           0.0140    -0.0110     2.4030 ca         1 NAB      -0.150000
      6 C6          -0.6870    -0.0110     1.2170 ca         1 NAB      -0.106000
      7 C1'         -2.6620    -0.0090    -2.3410 ca         1 NAB       0.110400
      8 C2'         -1.9840     0.0020    -3.5590 ca         1 NAB      -0.093000
      9 C3'         -2.6800     0.0020    -4.7540 ca         1 NAB      -0.146000
     10 C4'         -4.0600    -0.0090    -4.7880 ca         1 NAB       0.104100
     11 C4A         -4.8050    -0.0230    -3.5900 ca         1 NAB      -0.055000
     12 C5'         -6.2080    -0.0340    -3.6050 ca         1 NAB      -0.087000
     13 C6'         -6.8940    -0.0440    -2.4280 ca         1 NAB      -0.120000
     14 C7'         -6.2240    -0.0440    -1.2090 ca         1 NAB      -0.124000
     15 C8'         -4.8610    -0.0340    -1.1590 ca         1 NAB      -0.070000
     16 C8A         -4.1260    -0.0270    -2.3490 ca         1 NAB      -0.003000
     17 C            2.1510     0.0060    -1.2750 c          1 NAB       0.962200
     18 N1          -0.6880     0.0010    -1.1760 ne         1 NAB      -0.028400
     19 N1'         -1.9780    -0.0100    -1.1700 nf         1 NAB      -0.281400
     20 O            1.5480     0.0060    -2.3290 o          1 NAB      -0.870300
     21 OXT          3.4980     0.0100    -1.2700 o          1 NAB      -0.870300
     22 O4'         -4.7040    -0.0100    -5.9810 oh         1 NAB      -0.500100
     23 H3           3.1820     0.0020     1.2200 ha         1 NAB       0.135000
     24 H4           1.9390    -0.0050     3.3410 ha         1 NAB       0.084000
     25 H5          -0.5220    -0.0170     3.3440 ha         1 NAB       0.086000
     26 H6          -1.7700    -0.0130     1.2270 ha         1 NAB       0.112000
     27 H2'         -0.9010     0.0120    -3.5700 ha         1 NAB       0.172000
     28 H3'         -2.1290     0.0120    -5.6870 ha         1 NAB       0.107000
     29 H5'         -6.7430    -0.0340    -4.5480 ha         1 NAB       0.108000
     30 H6'         -7.9780    -0.0530    -2.4410 ha         1 NAB       0.090000
     31 H7'         -6.7920    -0.0530    -0.2860 ha         1 NAB       0.092000
     32 H8'         -4.3500    -0.0340    -0.2040 ha         1 NAB       0.122000
     33 HO4'        -4.4980     0.7820    -6.4500 ho         1 NAB       0.395000
@<TRIPOS>BOND
     1     1     2 ar  
     2     1     6 ar  
     3     1    18 1   
     4     2     3 ar  
     5     2    17 1   
     6     3     4 ar  
     7     3    23 1   
     8     4     5 ar  
     9     4    24 1   
    10     5     6 ar  
    11     5    25 1   
    12     6    26 1   
    13     7     8 ar  
    14     7    16 ar  
    15     7    19 1   
    16     8     9 ar  
    17     8    27 1   
    18     9    10 ar  
    19     9    28 1   
    20    10    11 ar  
    21    10    22 1   
    22    11    12 ar  
    23    11    16 ar  
    24    12    13 ar  
    25    12    29 1   
    26    13    14 ar  
    27    13    30 1   
    28    14    15 ar  
    29    14    31 1   
    30    15    16 ar  
    31    15    32 1   
    32    17    20 1   
    33    17    21 1   
    34    18    19 2   
    35    22    33 1   
@<TRIPOS>SUBSTRUCTURE
     1 NAB         1 TEMP              0 ****  ****    0 ROOT
