@<TRIPOS>MOLECULE
NAF
   32    32     1     0     0
SMALL
bcc


@<TRIPOS>ATOM
      1 C1           0.0000     0.0000     0.0000 ca         1 NAF      -0.298400
      2 C2           1.3820     0.0000     0.0000 ca         1 NAF      -0.007000
      3 C3           2.0730     0.0000     1.1980 ca         1 NAF      -0.153300
      4 C4           1.3810    -0.0080     2.3950 ca         1 NAF       0.024000
      5 C5          -0.0010    -0.0150     2.3940 ca         1 NAF      -0.073000
      6 C6          -0.6920    -0.0100     1.1960 ca         1 NAF      -0.052000
      7 C1'          3.5800     0.0070     1.2000 c3         1 NAF       0.395900
      8 O1'          4.0600    -0.6590     0.0290 oh         1 NAF      -0.582800
      9 O2'          4.0590    -0.6710     2.3620 oh         1 NAF      -0.582800
     10 C2'          4.0830     1.4510     1.2070 c3         1 NAF       0.579900
     11 F1'          3.6140     2.1030     2.3520 f          1 NAF      -0.192300
     12 F2'          5.4820     1.4580     1.2080 f          1 NAF      -0.192300
     13 F3'          3.6150     2.1150     0.0680 f          1 NAF      -0.192300
     14 N1          -0.6980     0.0040    -1.2110 n4         1 NAF       0.263800
     15 CM1         -2.1430    -0.0030    -0.9440 c3         1 NAF      -0.003900
     16 CM2         -0.3380    -1.1890    -1.9890 c3         1 NAF      -0.003900
     17 CM3         -0.3480     1.2100    -1.9740 c3         1 NAF      -0.003900
     18 H2           1.9240     0.0070    -0.9380 ha         1 NAF       0.139000
     19 H4           1.9220    -0.0100     3.3330 ha         1 NAF       0.148000
     20 H5          -0.5430    -0.0220     3.3320 ha         1 NAF       0.138000
     21 H6          -1.7750    -0.0130     1.1960 ha         1 NAF       0.133000
     22 HO1          4.4150    -1.4990     0.2680 ho         1 NAF       0.425000
     23 HO2          4.2810    -1.5600     2.1390 ho         1 NAF       0.425000
     24 HM11        -2.6840    -0.0000    -1.8830 hx         1 NAF       0.074144
     25 HM12        -2.4090     0.8770    -0.3720 hx         1 NAF       0.074144
     26 HM13        -2.4020    -0.8920    -0.3810 hx         1 NAF       0.074144
     27 HM21        -0.3440    -2.0580    -1.3420 hx         1 NAF       0.074144
     28 HM22         0.6510    -1.0600    -2.4110 hx         1 NAF       0.074144
     29 HM23        -1.0560    -1.3300    -2.7880 hx         1 NAF       0.074144
     30 HM31         0.6390     1.0910    -2.4040 hx         1 NAF       0.074144
     31 HM32        -1.0710     1.3580    -2.7670 hx         1 NAF       0.074144
     32 HM33        -0.3540     2.0690    -1.3150 hx         1 NAF       0.074144
@<TRIPOS>BOND
     1     1     2 ar  
     2     1     6 ar  
     3     1    14 1   
     4     2     3 ar  
     5     2    18 1   
     6     3     4 ar  
     7     3     7 1   
     8     4     5 ar  
     9     4    19 1   
    10     5     6 ar  
    11     5    20 1   
    12     6    21 1   
    13     7     8 1   
    14     7     9 1   
    15     7    10 1   
    16     8    22 1   
    17     9    23 1   
    18    10    11 1   
    19    10    12 1   
    20    10    13 1   
    21    14    15 1   
    22    14    16 1   
    23    14    17 1   
    24    15    24 1   
    25    15    25 1   
    26    15    26 1   
    27    16    27 1   
    28    16    28 1   
    29    16    29 1   
    30    17    30 1   
    31    17    31 1   
    32    17    32 1   
@<TRIPOS>SUBSTRUCTURE
     1 NAF         1 TEMP              0 ****  ****    0 ROOT
