@<TRIPOS>MOLECULE
NAK
   11    10     1     0     0
SMALL
bcc


@<TRIPOS>ATOM
      1 OAC          0.0000     0.0000     0.0000 o          1 NAK      -0.785800
      2 CAF          1.2220     0.0000     0.0000 c          1 NAK       0.931600
      3 OAD          1.8330     0.0000     1.0590 o          1 NAK      -0.785800
      4 CAG          1.9640    -0.0000    -1.2830 c2         1 NAK      -0.044200
      5 CAE          1.2110    -0.0000    -2.5890 c3         1 NAK       0.030100
      6 NAB          3.2440    -0.0000    -1.2830 nv         1 NAK      -0.003600
      7 HAE1         0.5880    -0.8850    -2.6460 hc         1 NAK       0.039367
      8 HAE2         0.5880     0.8850    -2.6460 hc         1 NAK       0.039367
      9 HAE3         1.9150    -0.0000    -3.4120 hc         1 NAK       0.039367
     10 HAB1         3.7440     0.0000    -0.4170 hn         1 NAK       0.269300
     11 HAB2         3.7440    -0.0000    -2.1500 hn         1 NAK       0.269300
@<TRIPOS>BOND
     1     1     2 1   
     2     2     3 1   
     3     2     4 2   
     4     4     5 1   
     5     4     6 1   
     6     5     7 1   
     7     5     8 1   
     8     5     9 1   
     9     6    10 1   
    10     6    11 1   
@<TRIPOS>SUBSTRUCTURE
     1 NAK         1 TEMP              0 ****  ****    0 ROOT
