@<TRIPOS>MOLECULE
molecule
   32    34     1     0     0
SMALL
bcc


@<TRIPOS>ATOM
      1 C1           0.0000     0.0000     0.0000 ca         1 NAR      -0.222000
      2 C2           1.3870     0.0000     0.0000 ca         1 NAR       0.190100
      3 C3           2.0980     0.0000     1.1950 ca         1 NAR      -0.269000
      4 C4           1.4180    -0.0120     2.3980 ca         1 NAR       0.221100
      5 C5           0.0130    -0.0290     2.4020 ca         1 NAR      -0.283600
      6 C6          -0.7060    -0.0040     1.1960 ca         1 NAR       0.200100
      7 C7          -0.7180    -0.0800     3.6760 c          1 NAR       0.580700
      8 C8          -2.2270     0.0720     3.5640 c3         1 NAR      -0.205400
      9 C9          -2.6270    -0.6350     2.2600 c3         1 NAR       0.189400
     10 O1          -2.0530     0.0370     1.1520 os         1 NAR      -0.295900
     11 O2          -0.1580    -0.2340     4.7420 o          1 NAR      -0.496100
     12 C10         -4.1280    -0.6280     2.1270 ca         1 NAR      -0.104300
     13 C11         -4.7590     0.4170     1.4790 ca         1 NAR      -0.096000
     14 C12         -6.1350     0.4250     1.3560 ca         1 NAR      -0.153000
     15 C13         -6.8840    -0.6170     1.8840 ca         1 NAR       0.114100
     16 C14         -6.2490    -1.6610     2.5380 ca         1 NAR      -0.153000
     17 C15         -4.8720    -1.6680     2.6540 ca         1 NAR      -0.096000
     18 O3          -8.2370    -0.6110     1.7640 oh         1 NAR      -0.521100
     19 O4           2.0580    -0.0020    -1.1790 oh         1 NAR      -0.520100
     20 O5           2.1030    -0.0060     3.5680 oh         1 NAR      -0.478100
     21 H11         -0.5370     0.0000    -0.9410 ha         1 NAR       0.160000
     22 H31          3.1810    -0.0000     1.1830 ha         1 NAR       0.151000
     23 H81         -2.4920     1.1220     3.5140 hc         1 NAR       0.087200
     24 H82         -2.7130    -0.4020     4.4090 hc         1 NAR       0.087200
     25 H9          -2.2690    -1.6570     2.2830 h1         1 NAR       0.062700
     26 H111        -4.1730     1.2300     1.0670 ha         1 NAR       0.142000
     27 H121        -6.6280     1.2440     0.8460 ha         1 NAR       0.144000
     28 H141        -6.8320    -2.4750     2.9510 ha         1 NAR       0.144000
     29 H151        -4.3750    -2.4840     3.1650 ha         1 NAR       0.142000
     30 HO3         -8.6160    -0.1680     2.5040 ho         1 NAR       0.421000
     31 H41          2.2150     0.8870    -1.4520 ho         1 NAR       0.430000
     32 H51          2.7940    -0.6470     3.5310 ho         1 NAR       0.429000
@<TRIPOS>BOND
     1     1     2 ar
     2     1     6 ar
     3     1    21 1
     4     2     3 ar
     5     2    19 1
     6     3     4 ar
     7     3    22 1
     8     4     5 ar
     9     4    20 1
    10     5     6 ar
    11     5     7 1
    12     6    10 1
    13     7     8 1
    14     7    11 2
    15     8     9 1
    16     8    23 1
    17     8    24 1
    18     9    10 1
    19     9    12 1
    20     9    25 1
    21    12    13 ar
    22    12    17 ar
    23    13    14 ar
    24    13    26 1
    25    14    15 ar
    26    14    27 1
    27    15    16 ar
    28    15    18 1
    29    16    17 ar
    30    16    28 1
    31    17    29 1
    32    18    30 1
    33    19    31 1
    34    20    32 1
@<TRIPOS>SUBSTRUCTURE
     1 NAR         1 TEMP              0 ****  ****    0 ROOT
