@<TRIPOS>MOLECULE
NAR
   32    34     1     0     0
SMALL
bcc


@<TRIPOS>ATOM
      1 C1         -0.0160   -0.2000   -0.0370 ca        1 NAR     -0.239000
      2 C2          1.3750   -0.0250   -0.0410 ca        1 NAR      0.221100
      3 C3          2.1030    0.1050    1.1490 ca        1 NAR     -0.358000
      4 C4          1.4150    0.0720    2.3700 ca        1 NAR      0.251100
      5 C5          0.0120   -0.0850    2.4240 ca        1 NAR     -0.306600
      6 C6         -0.6750   -0.2290    1.1990 ca        1 NAR      0.230100
      7 C7         -0.7240   -0.0690    3.6910 c         1 NAR      0.593700
      8 C8         -2.2220   -0.0170    3.5380 c3        1 NAR     -0.212400
      9 C9         -2.6780   -0.8330    2.3380 c3        1 NAR      0.203400
     10 O1         -2.0410   -0.3750    1.1220 os        1 NAR     -0.317900
     11 O2         -0.1950   -0.0690    4.8060 o         1 NAR     -0.512100
     12 C10        -4.1540   -0.7110    2.1180 ca        1 NAR     -0.134300
     13 C11        -4.6940    0.4100    1.4740 ca        1 NAR     -0.070500
     14 C12        -6.0660    0.5270    1.2890 ca        1 NAR     -0.188000
     15 C13        -6.9080   -0.4950    1.7580 ca        1 NAR      0.135100
     16 C14        -6.3790   -1.6240    2.4010 ca        1 NAR     -0.188000
     17 C15        -5.0010   -1.7270    2.5710 ca        1 NAR     -0.070500
     18 O3         -8.2560   -0.3230    1.5520 oh        1 NAR     -0.494100
     19 O4          1.9770    0.0020   -1.2730 oh        1 NAR     -0.485100
     20 O5          2.0710    0.2020    3.5620 oh        1 NAR     -0.454100
     21 H11        -0.5740   -0.3090   -0.9760 ha        1 NAR      0.174000
     22 H31         3.1930    0.2320    1.1270 ha        1 NAR      0.141000
     23 H81        -2.5240    1.0570    3.4090 hc        1 NAR      0.088200
     24 H82        -2.7180   -0.4060    4.4650 hc        1 NAR      0.088200
     25 H9         -2.3880   -1.9140    2.4760 h1        1 NAR      0.063700
     26 H111       -4.0180    1.1970    1.1040 ha        1 NAR      0.142500
     27 H121       -6.5020    1.4000    0.7820 ha        1 NAR      0.145500
     28 H141       -7.0440   -2.4210    2.7610 ha        1 NAR      0.145500
     29 H151       -4.5810   -2.6150    3.0680 ha        1 NAR      0.142500
     30 HO3        -8.7160   -1.0950    1.9130 ho        1 NAR      0.421000
     31 H41         2.9310    0.1180   -1.1420 ho        1 NAR      0.426000
     32 H51         3.0170    0.3090    3.3790 ho        1 NAR      0.421000
@<TRIPOS>BOND
     1    1    2 ar  
     2    1    6 ar  
     3    1   21 1   
     4    2    3 ar  
     5    2   19 1   
     6    3    4 ar  
     7    3   22 1   
     8    4    5 ar  
     9    4   20 1   
    10    5    6 ar  
    11    5    7 1   
    12    6   10 1   
    13    7    8 1   
    14    7   11 2   
    15    8    9 1   
    16    8   23 1   
    17    8   24 1   
    18    9   10 1   
    19    9   12 1   
    20    9   25 1   
    21   12   13 ar  
    22   12   17 ar  
    23   13   14 ar  
    24   13   26 1   
    25   14   15 ar  
    26   14   27 1   
    27   15   16 ar  
    28   15   18 1   
    29   16   17 ar  
    30   16   28 1   
    31   17   29 1   
    32   18   30 1   
    33   19   31 1   
    34   20   32 1   
@<TRIPOS>SUBSTRUCTURE
     1 NAR         1 TEMP              0 ****  ****    0 ROOT
