@<TRIPOS>MOLECULE
molecule
   21    22     1     0     0
SMALL
bcc


@<TRIPOS>ATOM
      1 S            0.0000     0.0000     0.0000 s6         1 NAS       1.323100
      2 O1S          1.4210     0.0000     0.0000 o          1 NAS      -0.708867
      3 O2S         -0.8220     0.0000     1.1590 o          1 NAS      -0.708867
      4 O3S         -0.4120     1.2260    -0.8000 o          1 NAS      -0.708867
      5 C1          -1.7120    -1.9620    -0.7310 ca         1 NAS      -0.024000
      6 C2          -0.4800    -1.4190    -0.9260 ca         1 NAS      -0.256500
      7 C3           0.4110    -1.9730    -1.8440 ca         1 NAS      -0.026000
      8 C4           0.0730    -3.0690    -2.5750 ca         1 NAS      -0.174000
      9 C5          -1.5800    -4.7870    -3.1420 ca         1 NAS      -0.129000
     10 C6          -2.8150    -5.3270    -2.9500 ca         1 NAS      -0.138000
     11 C7          -3.7040    -4.7730    -2.0330 ca         1 NAS      -0.161000
     12 C8          -3.3660    -3.6760    -1.3020 ca         1 NAS      -0.098000
     13 C9          -2.0990    -3.0910    -1.4730 ca         1 NAS      -0.062000
     14 C10         -1.1940    -3.6540    -2.4050 ca         1 NAS      -0.013000
     15 H3           1.3880    -1.5230    -1.9780 ha         1 NAS       0.150000
     16 H4           0.7750    -3.4880    -3.2850 ha         1 NAS       0.115000
     17 H5          -0.8980    -5.2280    -3.8590 ha         1 NAS       0.118000
     18 H6          -3.1100    -6.2000    -3.5190 ha         1 NAS       0.109000
     19 H7          -4.6810    -5.2220    -1.8990 ha         1 NAS       0.111000
     20 H8          -4.0680    -3.2560    -0.5920 ha         1 NAS       0.128000
     21 H1          -2.4280    -1.4630    -0.0890 ha         1 NAS       0.154000
@<TRIPOS>BOND
     1     1     2 1
     2     1     3 1
     3     1     4 1
     4     1     6 1
     5     5     6 ar
     6     5    13 ar
     7     5    21 1
     8     6     7 ar
     9     7     8 ar
    10     7    15 1
    11     8    14 ar
    12     8    16 1
    13     9    10 ar
    14     9    14 ar
    15     9    17 1
    16    10    11 ar
    17    10    18 1
    18    11    12 ar
    19    11    19 1
    20    12    13 ar
    21    12    20 1
    22    13    14 ar
@<TRIPOS>SUBSTRUCTURE
     1 NAS         1 TEMP              0 ****  ****    0 ROOT
