@<TRIPOS>MOLECULE
NAT
   36    37     1     0     0
SMALL
bcc


@<TRIPOS>ATOM
      1 C1           0.0000     0.0000     0.0000 ca         1 NAT      -0.113000
      2 C2           1.3830     0.0000     0.0000 ca         1 NAT      -0.122300
      3 C3           2.0760     0.0000     1.1950 ca         1 NAT      -0.104000
      4 C4           1.3820     0.0100     2.3970 ca         1 NAT       0.129100
      5 C5          -0.0050     0.0090     2.3950 ca         1 NAT      -0.145000
      6 C6          -0.6930     0.0040     1.1960 ca         1 NAT      -0.070000
      7 C7           2.1360    -0.0050    -1.3060 c3         1 NAT       0.117200
      8 N8           1.4330     0.8910    -2.2390 ns         1 NAT      -0.025900
      9 C9           0.9910     0.3830    -3.4060 cs         1 NAT       0.254400
     10 N10          1.1770    -0.9000    -3.7400 ns         1 NAT       0.111900
     11 C11          1.8200    -1.8050    -2.9460 c2         1 NAT      -0.052600
     12 C12          2.3190    -1.4440    -1.7430 ce         1 NAT      -0.303400
     13 O13          2.0610     0.0140     3.5740 oh         1 NAT      -0.495100
     14 C14          2.9860    -2.3800    -0.9190 c          1 NAT       0.735300
     15 O15          3.5990    -1.9680     0.2110 os         1 NAT      -0.381900
     16 C16          4.1710    -3.1280     0.8170 c3         1 NAT       0.195400
     17 C17          4.8850    -2.7280     2.1100 c3         1 NAT      -0.009100
     18 C18          1.9760    -3.2270    -3.4180 c3         1 NAT       0.045100
     19 O19          3.0080    -3.5570    -1.2280 o          1 NAT      -0.605000
     20 S20          0.1650     1.4110    -4.4970 s          1 NAT      -0.684400
     21 H1          -0.5410    -0.0020    -0.9390 ha         1 NAT       0.111000
     22 H3           3.1590     0.0000     1.1950 ha         1 NAT       0.134000
     23 H5          -0.5480     0.0150     3.3320 ha         1 NAT       0.114000
     24 H6          -1.7770     0.0040     1.1940 ha         1 NAT       0.108000
     25 H7           3.1200     0.4130    -1.1290 h1         1 NAT       0.042700
     26 HN8          1.2860     1.8540    -2.0110 hn         1 NAT       0.223500
     27 HN10         0.8240    -1.2140    -4.6230 hn         1 NAT       0.203500
     28 HO13         1.9310     0.8410     4.0090 ho         1 NAT       0.404000
     29 H161         4.8830    -3.5780     0.1360 h1         1 NAT       0.018200
     30 H162         3.3880    -3.8410     1.0430 h1         1 NAT       0.018200
     31 H171         4.1560    -2.6050     2.9020 hc         1 NAT       0.012367
     32 H172         5.4130    -1.7950     1.9580 hc         1 NAT       0.012367
     33 H173         5.5910    -3.5020     2.3870 hc         1 NAT       0.012367
     34 H181         3.0270    -3.4880    -3.4360 hc         1 NAT       0.036033
     35 H182         1.5630    -3.3240    -4.4150 hc         1 NAT       0.036033
     36 H183         1.4510    -3.8910    -2.7430 hc         1 NAT       0.036033
@<TRIPOS>BOND
     1     1     2 ar  
     2     1     6 ar  
     3     1    21 1   
     4     2     3 ar  
     5     2     7 1   
     6     3     4 ar  
     7     3    22 1   
     8     4     5 ar  
     9     4    13 1   
    10     5     6 ar  
    11     5    23 1   
    12     6    24 1   
    13     7     8 1   
    14     7    12 1   
    15     7    25 1   
    16     8     9 1   
    17     8    26 1   
    18     9    10 1   
    19     9    20 2   
    20    10    11 1   
    21    10    27 1   
    22    11    12 2   
    23    11    18 1   
    24    12    14 1   
    25    13    28 1   
    26    14    15 1   
    27    14    19 2   
    28    15    16 1   
    29    16    17 1   
    30    16    29 1   
    31    16    30 1   
    32    17    31 1   
    33    17    32 1   
    34    17    33 1   
    35    18    34 1   
    36    18    35 1   
    37    18    36 1   
@<TRIPOS>SUBSTRUCTURE
     1 NAT         1 TEMP              0 ****  ****    0 ROOT
