@<TRIPOS>MOLECULE
molecule
   41    40     1     0     0
SMALL
bcc


@<TRIPOS>ATOM
      1 C1           0.0000     0.0000     0.0000 c          1 NAU       0.895600
      2 O1A          1.2060     0.0000     0.0000 o          1 NAU      -0.853800
      3 O1B         -0.6710     0.0000     1.1630 o          1 NAU      -0.853800
      4 C2          -0.7540    -0.0010    -1.3050 c3         1 NAU      -0.191400
      5 C3           0.2390    -0.0020    -2.4680 c3         1 NAU      -0.083400
      6 C4          -0.5260    -0.0030    -3.7930 c3         1 NAU       0.334600
      7 C5           0.4670    -0.0030    -4.9560 c3         1 NAU       0.109700
      8 N2           1.3930    -1.1270    -4.8070 ns         1 NAU      -0.572900
      9 C10          2.7190    -0.9010    -4.7180 c          1 NAU       0.659100
     10 C11          3.6770    -2.0610    -4.6370 c3         1 NAU      -0.172100
     11 O10          3.1400     0.2350    -4.7040 o          1 NAU      -0.605100
     12 O6          -1.1970     0.9570    -6.4210 oh         1 NAU      -0.568800
     13 C6          -0.2940    -0.1390    -6.2750 c3         1 NAU       0.140100
     14 C7           0.6990    -0.1400    -7.4390 c3         1 NAU       0.135100
     15 O7           1.4340     1.0850    -7.4380 oh         1 NAU      -0.573800
     16 C8          -0.0610    -0.2770    -8.7590 c3         1 NAU       0.120100
     17 O8          -0.7960    -1.5030    -8.7610 oh         1 NAU      -0.607800
     18 C9           0.9320    -0.2770    -9.9230 c3         1 NAU       0.110400
     19 O9           0.2220    -0.4050   -11.1560 oh         1 NAU      -0.615800
     20 O4A         -1.3490     1.1630    -3.8680 oh         1 NAU      -0.627300
     21 O4B         -1.3470    -1.1700    -3.8680 oh         1 NAU      -0.627300
     22 HC21        -1.3770    -0.8850    -1.3610 hc         1 NAU       0.028200
     23 HC22        -1.3760     0.8840    -1.3620 hc         1 NAU       0.028200
     24 HC31         0.8620     0.8820    -2.4110 hc         1 NAU       0.070200
     25 HC32         0.8610    -0.8870    -2.4100 hc         1 NAU       0.070200
     26 HC5          1.0240     0.9260    -4.9540 h1         1 NAU       0.134700
     27 HN2          1.0440    -2.0650    -4.7940 hn         1 NAU       0.320500
     28 H111         3.6280    -2.6350    -5.5550 hc         1 NAU       0.057033
     29 H112         3.4080    -2.6940    -3.8000 hc         1 NAU       0.057033
     30 H113         4.6850    -1.6880    -4.4980 hc         1 NAU       0.057033
     31 HO6         -2.0530     0.6320    -6.6470 ho         1 NAU       0.387000
     32 HC6         -0.8510    -1.0680    -6.2760 h1         1 NAU       0.058700
     33 HC7          1.3840    -0.9720    -7.3290 h1         1 NAU       0.046700
     34 HO7          2.3120     0.9250    -7.7420 ho         1 NAU       0.396000
     35 HC8         -0.7460     0.5550    -8.8690 h1         1 NAU       0.062700
     36 HO8         -1.5750    -1.4010    -9.2810 ho         1 NAU       0.410000
     37 HC91         1.4900     0.6510    -9.9220 h1         1 NAU       0.029700
     38 HC92         1.6170    -1.1100    -9.8130 h1         1 NAU       0.029700
     39 HO9          0.8040    -0.2170   -11.8740 ho         1 NAU       0.400000
     40 HO4A        -2.2170     0.9560    -3.5630 ho         1 NAU       0.402000
     41 HO4B        -2.2500    -0.9290    -3.7400 ho         1 NAU       0.402000
@<TRIPOS>BOND
     1     1     2 1
     2     1     3 1
     3     1     4 1
     4     4     5 1
     5     4    22 1
     6     4    23 1
     7     5     6 1
     8     5    24 1
     9     5    25 1
    10     6     7 1
    11     6    20 1
    12     6    21 1
    13     7     8 1
    14     7    13 1
    15     7    26 1
    16     8     9 1
    17     8    27 1
    18     9    10 1
    19     9    11 2
    20    10    28 1
    21    10    29 1
    22    10    30 1
    23    12    13 1
    24    12    31 1
    25    13    14 1
    26    13    32 1
    27    14    15 1
    28    14    16 1
    29    14    33 1
    30    15    34 1
    31    16    17 1
    32    16    18 1
    33    16    35 1
    34    17    36 1
    35    18    19 1
    36    18    37 1
    37    18    38 1
    38    19    39 1
    39    20    40 1
    40    21    41 1
@<TRIPOS>SUBSTRUCTURE
     1 NAU         1 TEMP              0 ****  ****    0 ROOT
