@<TRIPOS>MOLECULE
molecule
   38    37     1     0     0
SMALL
bcc


@<TRIPOS>ATOM
      1 C1           0.0000     0.0000     0.0000 c          1 NAV       0.889600
      2 O1A          1.3420     0.0000     0.0000 o          1 NAV      -0.856800
      3 O1B         -0.6030     0.0000     1.0460 o          1 NAV      -0.856800
      4 C2          -0.7520    -0.0010    -1.3060 c3         1 NAV      -0.175400
      5 C3          -2.2560    -0.0020    -1.0260 c3         1 NAV      -0.154400
      6 C4          -3.0100    -0.0030    -2.3310 c          1 NAV       0.540100
      7 C5          -4.5170    -0.0040    -2.3310 c3         1 NAV       0.004700
      8 N2          -5.0050     0.6860    -3.5270 ns         1 NAV      -0.591900
      9 C10         -4.6790     0.2250    -4.7510 c          1 NAV       0.655100
     10 C11         -5.1810     0.9340    -5.9820 c3         1 NAV      -0.170100
     11 O10         -3.9820    -0.7600    -4.8610 o          1 NAV      -0.569100
     12 O6          -4.5500    -2.1170    -1.1630 oh         1 NAV      -0.584800
     13 C6          -5.0260    -1.4450    -2.3300 c3         1 NAV       0.137100
     14 C7          -6.5560    -1.4450    -2.3310 c3         1 NAV       0.136100
     15 O7          -7.0320    -0.7710    -1.1640 oh         1 NAV      -0.585800
     16 C8          -7.0660    -2.8880    -2.3300 c3         1 NAV       0.134100
     17 O8          -6.5890    -3.5620    -3.4950 oh         1 NAV      -0.602800
     18 C9          -8.5960    -2.8880    -2.3300 c3         1 NAV       0.109400
     19 O9          -9.0720    -4.2350    -2.3290 oh         1 NAV      -0.614800
     20 O4          -2.4070    -0.0040    -3.3760 o          1 NAV      -0.506100
     21 HC21        -0.4910     0.8830    -1.8740 hc         1 NAV       0.040700
     22 HC22        -0.4900    -0.8860    -1.8730 hc         1 NAV       0.040700
     23 HC31        -2.5190     0.8830    -0.4590 hc         1 NAV       0.076200
     24 HC32        -2.5170    -0.8860    -0.4580 hc         1 NAV       0.076200
     25 HC5         -4.8780     0.5070    -1.4470 h1         1 NAV       0.088700
     26 HN2         -5.5410     1.5260    -3.4360 hn         1 NAV       0.304500
     27 H111        -4.7800     0.4520    -6.8660 hc         1 NAV       0.053367
     28 H112        -6.2630     0.8910    -6.0070 hc         1 NAV       0.053367
     29 H113        -4.8610     1.9690    -5.9590 hc         1 NAV       0.053367
     30 HO6         -4.1310    -2.9240    -1.4130 ho         1 NAV       0.407000
     31 HC6         -4.6640    -1.9560    -3.2140 h1         1 NAV       0.097700
     32 HC7         -6.9170    -0.9350    -3.2150 h1         1 NAV       0.044700
     33 HO7         -7.6530    -0.1080    -1.4160 ho         1 NAV       0.389000
     34 HC8         -6.7050    -3.3980    -1.4450 h1         1 NAV       0.067700
     35 HO8         -6.5370    -4.4880    -3.3240 ho         1 NAV       0.414000
     36 HC91        -8.9570    -2.3770    -1.4460 h1         1 NAV       0.027700
     37 HC92        -8.9570    -2.3790    -3.2150 h1         1 NAV       0.027700
     38 HO9        -10.0120    -4.2360    -2.2550 ho         1 NAV       0.399000
@<TRIPOS>BOND
     1     1     2 1
     2     1     3 1
     3     1     4 1
     4     4     5 1
     5     4    21 1
     6     4    22 1
     7     5     6 1
     8     5    23 1
     9     5    24 1
    10     6     7 1
    11     6    20 2
    12     7     8 1
    13     7    13 1
    14     7    25 1
    15     8     9 1
    16     8    26 1
    17     9    10 1
    18     9    11 2
    19    10    27 1
    20    10    28 1
    21    10    29 1
    22    12    13 1
    23    12    30 1
    24    13    14 1
    25    13    31 1
    26    14    15 1
    27    14    16 1
    28    14    32 1
    29    15    33 1
    30    16    17 1
    31    16    18 1
    32    16    34 1
    33    17    35 1
    34    18    19 1
    35    18    36 1
    36    18    37 1
    37    19    38 1
@<TRIPOS>SUBSTRUCTURE
     1 NAV         1 TEMP              0 ****  ****    0 ROOT
