@<TRIPOS>MOLECULE
NAY
   38    37     1     0     0
SMALL
bcc


@<TRIPOS>ATOM
      1 C1           0.0000     0.0000     0.0000 c          1 NAY       0.896600
      2 O1A          1.3450     0.0000     0.0000 o          1 NAY      -0.869300
      3 O1B         -0.6060     0.0000     1.0510 o          1 NAY      -0.869300
      4 C2          -0.7470    -0.0010    -1.2900 c          1 NAY       0.515100
      5 O2          -0.1440    -0.0020    -2.3360 o          1 NAY      -0.573100
      6 C3          -2.2530    -0.0020    -1.2900 c3         1 NAY      -0.135400
      7 C4          -2.7650    -0.0030    -2.7310 c3         1 NAY      -0.064400
      8 C5          -4.2930    -0.0030    -2.7300 c3         1 NAY       0.012700
      9 N           -4.7810     1.1930    -2.0400 ns         1 NAY      -0.187900
     10 C10         -4.4560     2.4170    -2.5010 c          1 NAY       0.574100
     11 C11         -4.9590     3.6480    -1.7920 c3         1 NAY      -0.072100
     12 O10         -3.7600     2.5270    -3.4870 o          1 NAY      -0.644100
     13 O6          -4.3290    -1.1720    -4.8440 oh         1 NAY      -0.571800
     14 C6          -4.8050    -0.0040    -4.1710 c3         1 NAY       0.149100
     15 C7          -6.3350    -0.0050    -4.1710 c3         1 NAY       0.162100
     16 O7          -6.8100    -1.1710    -3.4960 oh         1 NAY      -0.566800
     17 C8          -6.8460    -0.0060    -5.6130 c3         1 NAY       0.157100
     18 O8          -6.3700     1.1600    -6.2880 oh         1 NAY      -0.578800
     19 C9          -8.3760    -0.0060    -5.6120 c3         1 NAY       0.189400
     20 O9          -8.8530    -0.0080    -6.9590 oh         1 NAY      -0.594800
     21 HC31        -2.6140     0.8830    -0.7790 hc         1 NAY       0.028700
     22 HC32        -2.6140    -0.8860    -0.7780 hc         1 NAY       0.028700
     23 HC41        -2.4050     0.8820    -3.2430 hc         1 NAY       0.051700
     24 HC42        -2.4040    -0.8870    -3.2410 hc         1 NAY       0.051700
     25 HC5         -4.6530    -0.8870    -2.2190 h1         1 NAY       0.047700
     26 HN          -5.3280     1.1010    -1.2070 hn         1 NAY       0.166500
     27 H111        -4.8120     4.5140    -2.4250 hc         1 NAY       0.019033
     28 H112        -4.4110     3.7800    -0.8670 hc         1 NAY       0.019033
     29 H113        -6.0140     3.5340    -1.5740 hc         1 NAY       0.019033
     30 HO6         -3.8280    -0.9160    -5.6010 ho         1 NAY       0.388000
     31 HC6         -4.4440     0.8800    -4.6830 h1         1 NAY       0.067700
     32 HC7         -6.6960     0.8800    -3.6610 h1         1 NAY       0.010700
     33 HO7         -7.5130    -0.9330    -2.9140 ho         1 NAY       0.375000
     34 HC8         -6.4860    -0.8900    -6.1230 h1         1 NAY       0.030700
     35 HO8         -6.2400     0.9630    -7.2010 ho         1 NAY       0.397000
     36 HC91        -8.7360    -0.8910    -5.1000 h1         1 NAY      -0.007300
     37 HC92        -8.7370     0.8780    -5.1020 h1         1 NAY      -0.007300
     38 HO9         -9.7770    -0.1940    -6.9640 ho         1 NAY       0.386000
@<TRIPOS>BOND
     1     1     2 1   
     2     1     3 1   
     3     1     4 1   
     4     4     5 2   
     5     4     6 1   
     6     6     7 1   
     7     6    21 1   
     8     6    22 1   
     9     7     8 1   
    10     7    23 1   
    11     7    24 1   
    12     8     9 1   
    13     8    14 1   
    14     8    25 1   
    15     9    10 1   
    16     9    26 1   
    17    10    11 1   
    18    10    12 2   
    19    11    27 1   
    20    11    28 1   
    21    11    29 1   
    22    13    14 1   
    23    13    30 1   
    24    14    15 1   
    25    14    31 1   
    26    15    16 1   
    27    15    17 1   
    28    15    32 1   
    29    16    33 1   
    30    17    18 1   
    31    17    19 1   
    32    17    34 1   
    33    18    35 1   
    34    19    20 1   
    35    19    36 1   
    36    19    37 1   
    37    20    38 1   
@<TRIPOS>SUBSTRUCTURE
     1 NAY         1 TEMP              0 ****  ****    0 ROOT
