@<TRIPOS>MOLECULE
NAZ
   59    60     1     0     0
SMALL
bcc


@<TRIPOS>ATOM
      1 C1          3.1550   -1.2380    0.9850 c3        1 NAZ      0.000000
      2 O2          5.8740   -1.9150    0.9780 o         1 NAZ     -0.417000
      3 C3          6.5510    1.4760    0.8900 c3        1 NAZ     -0.217000
      4 N4          6.8680   -3.7060   -1.1610 n2        1 NAZ     -0.251000
      5 C5          5.6200   -3.9760   -1.1040 c2        1 NAZ     -0.062000
      6 C6          4.8700   -4.5640   -2.2670 c3        1 NAZ     -0.180000
      7 C7          4.7590   -3.5590   -3.4080 c2        1 NAZ      0.326000
      8 C8          6.1970   -2.3240   -5.0680 c2        1 NAZ      0.207000
      9 C9          7.5710   -2.1330   -5.4580 c2        1 NAZ     -0.280000
     10 N10         5.1650   -1.6310   -5.6320 n2        1 NAZ     -0.171000
     11 C11         7.8610   -1.2060   -6.4340 c2        1 NAZ      0.051000
     12 C12         5.4740   -0.7120   -6.5920 c2        1 NAZ      0.136000
     13 C13         6.8230   -0.4600   -7.0320 c2        1 NAZ     -0.273000
     14 C14         6.0050    1.2430   -8.5990 c3        1 NAZ     -0.239000
     15 C15         7.1210    0.4990   -8.0240 c1        1 NAZ     -0.062000
     16 C16         4.6380    0.9060   -8.0710 c2        1 NAZ      0.025000
     17 N17         4.3850    0.0110   -7.1570 n2        1 NAZ     -0.169000
     18 N18         5.9550   -3.2780   -4.0720 n         1 NAZ     -0.309000
     19 C19         3.5270    1.7080   -8.6740 c3        1 NAZ     -0.199000
     20 O20         3.6600   -3.0640   -3.6970 o         1 NAZ     -0.319000
     21 C21         6.5880    0.2510    1.7660 c3        1 NAZ     -0.182000
     22 C22         5.5420   -0.7710    1.3610 c2        1 NAZ      0.309000
     23 N23         4.2110   -0.4210    1.5080 n         1 NAZ     -0.348000
     24 C24         1.4710   -0.6190   -6.0710 c1        1 NAZ      0.460000
     25 C25         1.4030   -0.8400   -4.7380 c2        1 NAZ     -0.356000
     26 N26         1.9330    2.1980   -2.1210 n2        1 NAZ     -0.190000
     27 C27         0.9810    0.1880   -3.9160 c1        1 NAZ     -0.111000
     28 C28         1.7400    0.9790   -1.7340 c2        1 NAZ      0.021000
     29 C29         0.8020   -0.0070   -2.4580 c3        1 NAZ     -0.207000
     30 C30         1.8540   -1.8460   -1.0930 c3        1 NAZ     -0.247000
     31 C31         0.8610   -1.4090   -2.0590 c1        1 NAZ     -0.044000
     32 C32         2.4720   -0.7410   -0.2840 c2        1 NAZ     -0.047000
     33 N33         2.4110    0.5210   -0.5520 n2        1 NAZ     -0.146000
     34 H36         2.3520   -1.3210    1.7760 h1        1 NAZ      0.113500
     35 H37         3.5600   -2.2720    0.7770 h1        1 NAZ      0.113500
     36 H38         5.6010    2.0490    1.0280 hc        1 NAZ      0.087333
     37 H39         6.6380    1.1960   -0.1880 hc        1 NAZ      0.087333
     38 H40         7.5910   -0.2470    1.6880 hc        1 NAZ      0.111000
     39 H41         7.2570   -3.2990   -0.3330 hn        1 NAZ      0.180000
     40 H42         4.9770   -3.7920   -0.2130 h4        1 NAZ      0.121000
     41 H43         5.3610   -5.5080   -2.6270 hc        1 NAZ      0.127000
     42 H44         3.8260   -4.8220   -1.9440 hc        1 NAZ      0.127000
     43 H45         8.3730   -2.7140   -4.9810 ha        1 NAZ      0.152000
     44 H46         8.8990   -1.0250   -6.7610 ha        1 NAZ      0.163000
     45 H47         6.2070    2.3420   -8.4390 hc        1 NAZ      0.163000
     46 H48         6.0280    1.0770   -9.7160 hc        1 NAZ      0.163000
     47 H49         6.7810   -3.7050   -3.7010 hn        1 NAZ      0.262000
     48 H50         2.5220    1.2480   -8.4990 hc        1 NAZ      0.104333
     49 H51         3.5340    2.7300   -8.2180 hc        1 NAZ      0.104333
     50 H52         3.6920    1.8020   -9.7750 hc        1 NAZ      0.104333
     51 H53         7.4040    2.1490    1.1490 hc        1 NAZ      0.087333
     52 H54         6.4310    0.5340    2.8410 hc        1 NAZ      0.111000
     53 H55         4.0010    0.5450    1.6310 hn        1 NAZ      0.240000
     54 H56         1.7410   -1.8450   -4.4080 ha        1 NAZ      0.192000
     55 H35         1.4250    2.4380   -2.9500 hn        1 NAZ      0.173000
     56 H57        -0.2690    0.3250   -2.2510 hc        1 NAZ      0.180000
     57 H58         2.6520   -2.3800   -1.7020 hc        1 NAZ      0.161500
     58 H59         1.3980   -2.6170   -0.4120 hc        1 NAZ      0.161500
     59 O34         1.4470   -0.4760   -7.2380 o         1 NAZ     -0.098000
@<TRIPOS>BOND
     1    1   23 1   
     2    1   32 1   
     3    1   34 1   
     4    1   35 1   
     5    2   22 1   
     6    3   21 1   
     7    3   36 1   
     8    3   37 1   
     9    3   51 1   
    10    4    5 1   
    11    4   39 1   
    12    5    6 1   
    13    5   40 1   
    14    6    7 1   
    15    6   41 1   
    16    6   42 1   
    17    7   18 1   
    18    7   20 1   
    19    8    9 1   
    20    8   10 1   
    21    8   18 1   
    22    9   11 1   
    23    9   43 1   
    24   10   12 1   
    25   11   13 1   
    26   11   44 1   
    27   12   13 1   
    28   12   17 1   
    29   13   15 1   
    30   14   15 1   
    31   14   16 1   
    32   14   45 1   
    33   14   46 1   
    34   16   17 1   
    35   16   19 1   
    36   18   47 1   
    37   19   48 1   
    38   19   49 1   
    39   19   50 1   
    40   21   22 1   
    41   21   38 1   
    42   21   52 1   
    43   22   23 1   
    44   23   53 1   
    45   24   25 1   
    46   24   59 1   
    47   25   27 1   
    48   25   54 1   
    49   26   28 1   
    50   26   55 1   
    51   27   29 1   
    52   28   29 1   
    53   28   33 1   
    54   29   31 1   
    55   29   56 1   
    56   30   31 1   
    57   30   32 1   
    58   30   57 1   
    59   30   58 1   
    60   32   33 1   
@<TRIPOS>SUBSTRUCTURE
     1 NAZ         1 TEMP              0 ****  ****    0 ROOT
