@<TRIPOS>MOLECULE
molecule
   33    34     1     0     0
SMALL
bcc


@<TRIPOS>ATOM
      1 C1           0.0000     0.0000     0.0000 c3         1 NB1       0.217200
      2 C2           1.5310     0.0000     0.0000 c3         1 NB1       0.043500
      3 C3           2.1580     0.0000     1.3980 c3         1 NB1       0.144100
      4 C4           1.4190     0.9450     2.3430 c3         1 NB1       0.108100
      5 C5          -0.0790     0.6370     2.3250 c3         1 NB1       0.128100
      6 C6          -0.8730     1.5730     3.2330 c3         1 NB1       0.155400
      7 C7           1.1070    -2.1170    -0.7210 c2         1 NB1       0.443200
      8 C8           1.2940    -3.4650    -1.3310 c3         1 NB1      -0.109700
      9 CM           2.1380    -5.8220    -0.9220 c3         1 NB1      -0.089100
     10 N2           2.0140    -1.1980    -0.7360 n2         1 NB1      -0.554900
     11 O3           3.5180     0.4240     1.2780 oh         1 NB1      -0.595800
     12 O4           1.9510     0.7600     3.6510 oh         1 NB1      -0.599800
     13 O5          -0.6060     0.7940     1.0070 os         1 NB1      -0.353600
     14 O6          -2.2430     1.2270     3.1500 oh         1 NB1      -0.593800
     15 S1          -0.4330    -1.7540     0.0150 ss         1 NB1      -0.313300
     16 C9           1.8810    -4.4460    -0.3220 c3         1 NB1      -0.079400
     17 H1          -0.3210     0.4010    -0.9540 h2         1 NB1       0.107700
     18 H2           1.8710     0.8840    -0.5260 h1         1 NB1       0.107700
     19 H3           2.1260    -1.0040     1.8020 h1         1 NB1       0.061700
     20 H4           1.5790     1.9680     2.0240 h1         1 NB1       0.058700
     21 HA           4.0850    -0.2310     1.6490 ho         1 NB1       0.415000
     22 H5          -0.2320    -0.3870     2.6450 h1         1 NB1       0.075700
     23 HB           2.4430     1.5250     3.9020 ho         1 NB1       0.414000
     24 H6C1        -0.7360     2.5980     2.9090 h1         1 NB1       0.033200
     25 H6C2        -0.5320     1.4660     4.2550 h1         1 NB1       0.033200
     26 H6          -2.7360     1.7430     3.7650 ho         1 NB1       0.405000
     27 H8C1         0.3360    -3.8370    -1.6730 hc         1 NB1       0.067700
     28 H8C2         1.9650    -3.3820    -2.1770 hc         1 NB1       0.067700
     29 H9C1         1.1910    -4.5490     0.5070 hc         1 NB1       0.047200
     30 H9C2         2.8170    -4.0470     0.0500 hc         1 NB1       0.047200
     31 HMC1         1.2070    -6.2320    -1.2960 hc         1 NB1       0.036700
     32 HMC2         2.8470    -5.7340    -1.7360 hc         1 NB1       0.036700
     33 HMC3         2.5410    -6.4780    -0.1600 hc         1 NB1       0.036700
@<TRIPOS>BOND
     1     1     2 1
     2     1    13 1
     3     1    15 1
     4     1    17 1
     5     2     3 1
     6     2    10 1
     7     2    18 1
     8     3     4 1
     9     3    11 1
    10     3    19 1
    11     4     5 1
    12     4    12 1
    13     4    20 1
    14     5     6 1
    15     5    13 1
    16     5    22 1
    17     6    14 1
    18     6    24 1
    19     6    25 1
    20     7     8 1
    21     7    10 2
    22     7    15 1
    23     8    16 1
    24     8    27 1
    25     8    28 1
    26     9    16 1
    27     9    31 1
    28     9    32 1
    29     9    33 1
    30    11    21 1
    31    12    23 1
    32    14    26 1
    33    16    29 1
    34    16    30 1
@<TRIPOS>SUBSTRUCTURE
     1 NB1         1 TEMP              0 ****  ****    0 ROOT
