@<TRIPOS>MOLECULE
molecule
   40    39     1     0     0
SMALL
bcc


@<TRIPOS>ATOM
      1 O4           0.0000     0.0000     0.0000 oh         1 NBA      -0.615300
      2 C4           1.4280     0.0000     0.0000 c3         1 NBA       0.340900
      3 C5           1.9400     0.0000     1.4410 c3         1 NBA      -0.071400
      4 C6           3.4700     0.0010     1.4410 c3         1 NBA       0.145800
      5 N7           3.9610     0.0010     2.8250 n7         1 NBA      -0.801200
      6 C8           5.4270     0.0020     2.7540 c3         1 NBA       0.146800
      7 C9           6.0080     0.0020     4.1680 c3         1 NBA      -0.084400
      8 C10          7.5350     0.0030     4.0940 c3         1 NBA       0.145800
      9 N11          8.0930     0.0030     5.4530 n7         1 NBA      -0.798200
     10 C12          9.5530     0.0040     5.3110 c3         1 NBA       0.145800
     11 C13         10.2020     0.0040     6.6960 c3         1 NBA      -0.085400
     12 C14         11.7240     0.0050     6.5480 c3         1 NBA       0.143800
     13 N15         12.3470     0.0040     7.8780 n7         1 NBA      -0.799200
     14 C16         13.7990     0.0060     7.6660 c3         1 NBA       0.136100
     15 O4L          1.9040     1.1660    -0.6740 oh         1 NBA      -0.615300
     16 HO4         -0.3140    -0.6230    -0.6340 ho         1 NBA       0.402500
     17 HC4          1.7890    -0.8850    -0.5110 h2         1 NBA       0.014700
     18 HC51         1.5790     0.8840     1.9520 hc         1 NBA       0.068200
     19 HC52         1.5800    -0.8850     1.9520 hc         1 NBA       0.068200
     20 HC61         3.8310    -0.8830     0.9300 h1         1 NBA       0.040200
     21 HC62         3.8300     0.8850     0.9300 h1         1 NBA       0.040200
     22 HN7          3.6490     0.8310     3.2890 hn         1 NBA       0.354800
     23 HC81         5.7630    -0.8830     2.2260 h1         1 NBA       0.032700
     24 HC82         5.7630     0.8860     2.2260 h1         1 NBA       0.032700
     25 HC91         5.6730    -0.8820     4.6970 hc         1 NBA       0.055200
     26 HC92         5.6730     0.8870     4.6960 hc         1 NBA       0.055200
     27 H101         7.8700     0.8870     3.5660 h1         1 NBA       0.032200
     28 H102         7.8710    -0.8820     3.5660 h1         1 NBA       0.032200
     29 HN11         7.8050    -0.8280     5.9320 hn         1 NBA       0.352800
     30 H121         9.8620     0.8890     4.7680 h1         1 NBA       0.031700
     31 H122         9.8640    -0.8800     4.7670 h1         1 NBA       0.031700
     32 H131         9.8930    -0.8810     7.2390 hc         1 NBA       0.055200
     33 H132         9.8920     0.8880     7.2400 hc         1 NBA       0.055200
     34 H141        12.0330     0.8900     6.0050 h1         1 NBA       0.032200
     35 H142        12.0340    -0.8790     6.0040 h1         1 NBA       0.032200
     36 HN51        12.0810     0.8330     8.3710 hn         1 NBA       0.350800
     37 H161        14.0840    -0.8800     7.1110 h1         1 NBA       0.031033
     38 H162        14.3040     0.0100     8.6240 h1         1 NBA       0.031033
     39 H163        14.0820     0.8890     7.1050 h1         1 NBA       0.031033
     40 HOL4         1.6380     1.1370    -1.5780 ho         1 NBA       0.402500
@<TRIPOS>BOND
     1     1     2 1
     2     1    16 1
     3     2     3 1
     4     2    15 1
     5     2    17 1
     6     3     4 1
     7     3    18 1
     8     3    19 1
     9     4     5 1
    10     4    20 1
    11     4    21 1
    12     5     6 1
    13     5    22 1
    14     6     7 1
    15     6    23 1
    16     6    24 1
    17     7     8 1
    18     7    25 1
    19     7    26 1
    20     8     9 1
    21     8    27 1
    22     8    28 1
    23     9    10 1
    24     9    29 1
    25    10    11 1
    26    10    30 1
    27    10    31 1
    28    11    12 1
    29    11    32 1
    30    11    33 1
    31    12    13 1
    32    12    34 1
    33    12    35 1
    34    13    14 1
    35    13    36 1
    36    14    37 1
    37    14    38 1
    38    14    39 1
    39    15    40 1
@<TRIPOS>SUBSTRUCTURE
     1 NBA         1 TEMP              0 ****  ****    0 ROOT
