@<TRIPOS>MOLECULE
molecule
   29    29     1     0     0
SMALL
bcc


@<TRIPOS>ATOM
      1 O1S          0.0000     0.0000     0.0000 o          1 NBB      -0.637300
      2 S            1.4200     0.0000     0.0000 sy         1 NBB       1.427200
      3 O2S          2.2420     0.0000     1.1590 o          1 NBB      -0.637300
      4 N10          1.8710    -1.3330    -0.8720 n7         1 NBB      -0.917100
      5 C11          3.2800    -1.5460    -1.2060 c3         1 NBB       0.232800
      6 C12          3.4240    -2.8410    -2.0090 c3         1 NBB      -0.090400
      7 C13          4.8950    -3.0640    -2.3590 c3         1 NBB      -0.083400
      8 C14          5.0390    -4.3590    -3.1610 c3         1 NBB      -0.091100
      9 C4           1.9000     1.4210    -0.9250 ca         1 NBB      -0.315500
     10 C5           3.1470     1.9810    -0.7340 ca         1 NBB      -0.028000
     11 C6           3.5250     3.0940    -1.4630 ca         1 NBB      -0.152500
     12 C1           2.6500     3.6510    -2.3760 ca         1 NBB      -0.075000
     13 C2           1.3990     3.0930    -2.5630 ca         1 NBB      -0.152500
     14 C3           1.0230     1.9780    -1.8370 ca         1 NBB      -0.028000
     15 H10          1.1830    -2.0040    -1.1510 hn         1 NBB       0.455800
     16 H111         3.6410    -0.7130    -1.7970 h1         1 NBB       0.046200
     17 H112         3.8610    -1.6210    -0.2950 h1         1 NBB       0.046200
     18 H121         3.0630    -3.6740    -1.4180 hc         1 NBB       0.049200
     19 H122         2.8430    -2.7670    -2.9200 hc         1 NBB       0.049200
     20 H131         5.2560    -2.2310    -2.9500 hc         1 NBB       0.043200
     21 H132         5.4760    -3.1390    -1.4470 hc         1 NBB       0.043200
     22 H141         4.4580    -4.2850    -4.0730 hc         1 NBB       0.035367
     23 H142         4.6780    -5.1920    -2.5700 hc         1 NBB       0.035367
     24 H143         6.0820    -4.5160    -3.4090 hc         1 NBB       0.035367
     25 H5           3.8330     1.5440    -0.0180 ha         1 NBB       0.151000
     26 H6           4.5040     3.5320    -1.3140 ha         1 NBB       0.136500
     27 H1           2.9450     4.5240    -2.9460 ha         1 NBB       0.133000
     28 H2           0.7120     3.5300    -3.2780 ha         1 NBB       0.136500
     29 H3           0.0430     1.5410    -1.9830 ha         1 NBB       0.151000
@<TRIPOS>BOND
     1     1     2 2
     2     2     3 2
     3     2     4 1
     4     2     9 1
     5     4     5 1
     6     4    15 1
     7     5     6 1
     8     5    16 1
     9     5    17 1
    10     6     7 1
    11     6    18 1
    12     6    19 1
    13     7     8 1
    14     7    20 1
    15     7    21 1
    16     8    22 1
    17     8    23 1
    18     8    24 1
    19     9    10 ar
    20     9    14 ar
    21    10    11 ar
    22    10    25 1
    23    11    12 ar
    24    11    26 1
    25    12    13 ar
    26    12    27 1
    27    13    14 ar
    28    13    28 1
    29    14    29 1
@<TRIPOS>SUBSTRUCTURE
     1 NBB         1 TEMP              0 ****  ****    0 ROOT
