@<TRIPOS>MOLECULE
NBE
   13    13     1     0     0
SMALL
bcc


@<TRIPOS>ATOM
      1 C1           0.0000     0.0000     0.0000 ca         1 NBE      -0.091600
      2 N           -0.6740     0.0000    -1.1550 ne         1 NBE       0.126900
      3 O           -1.8910    -0.0010    -1.1500 o          1 NBE      -0.271300
      4 C2           1.4080     0.0000     0.0000 ca         1 NBE      -0.014500
      5 C3           2.0880     0.0000     1.1910 ca         1 NBE      -0.132500
      6 C4           1.3940     0.0000     2.3900 ca         1 NBE      -0.036000
      7 C5           0.0080    -0.0010     2.4040 ca         1 NBE      -0.132500
      8 C6          -0.6940     0.0030     1.2260 ca         1 NBE      -0.014500
      9 H2           1.9520     0.0000    -0.9370 ha         1 NBE       0.120500
     10 H3           3.1710     0.0000     1.1940 ha         1 NBE       0.111500
     11 H4           1.9400    -0.0020     3.3260 ha         1 NBE       0.103000
     12 H5          -0.5230     0.0000     3.3480 ha         1 NBE       0.111500
     13 H6          -1.7770     0.0020     1.2390 ha         1 NBE       0.120500
@<TRIPOS>BOND
     1     1     2 1   
     2     1     4 ar  
     3     1     8 ar  
     4     2     3 2   
     5     4     5 ar  
     6     4     9 1   
     7     5     6 ar  
     8     5    10 1   
     9     6     7 ar  
    10     6    11 1   
    11     7     8 ar  
    12     7    12 1   
    13     8    13 1   
@<TRIPOS>SUBSTRUCTURE
     1 NBE         1 TEMP              0 ****  ****    0 ROOT
