@<TRIPOS>MOLECULE
molecule
   65    67     1     0     0
SMALL
bcc


@<TRIPOS>ATOM
      1 C01          0.0000     0.0000     0.0000 c3         1 NBH      -0.093100
      2 C02          1.5300     0.0000     0.0000 c3         1 NBH      -0.082400
      3 C03          2.0400     0.0000     1.4430 c3         1 NBH       0.152800
      4 N04          3.5090     0.0140     1.4420 n3         1 NBH      -0.721600
      5 C05          4.0320     0.3970     2.7600 c3         1 NBH       0.204100
      6 C06          3.6600     1.8290     3.0520 ca         1 NBH      -0.078300
      7 C07          2.4710     2.1160     3.6970 ca         1 NBH      -0.117500
      8 C08          2.1290     3.4280     3.9640 ca         1 NBH      -0.130000
      9 C09          2.9760     4.4530     3.5860 ca         1 NBH      -0.128000
     10 C10          4.1650     4.1660     2.9420 ca         1 NBH      -0.130000
     11 C11          4.5090     2.8530     2.6800 ca         1 NBH      -0.117500
     12 C12          4.0480    -1.2860     1.0190 c3         1 NBH       0.207100
     13 C13          5.5040    -1.1320     0.6580 ca         1 NBH      -0.095300
     14 C14          6.4810    -1.4240     1.5920 ca         1 NBH      -0.099500
     15 C15          7.8140    -1.2860     1.2640 ca         1 NBH      -0.145500
     16 C16          8.1740    -0.8520    -0.0050 ca         1 NBH       0.053600
     17 N17          9.5260    -0.7110    -0.3410 ns         1 NBH      -0.480100
     18 C18         10.4390    -1.5580     0.1720 c          1 NBH       0.657100
     19 O19         10.0820    -2.4970     0.8500 o          1 NBH      -0.581100
     20 C20         11.9060    -1.3400    -0.1000 c3         1 NBH      -0.120100
     21 C21         12.7080    -2.4190     0.5800 ca         1 NBH      -0.014300
     22 C22         13.1530    -2.2360     1.8760 ca         1 NBH      -0.133000
     23 C23         13.8900    -3.2250     2.5010 ca         1 NBH      -0.027000
     24 C24         14.1820    -4.3970     1.8290 ca         1 NBH      -0.295500
     25 C25         13.7370    -4.5800     0.5320 ca         1 NBH      -0.027000
     26 C26         12.9970    -3.5930    -0.0900 ca         1 NBH      -0.133000
     27 S27         15.1210    -5.6580     2.6240 sy         1 NBH       1.193300
     28 O28         15.7400    -6.3610     1.5540 o          1 NBH      -0.621300
     29 O29         15.8970    -4.9610     3.5880 o          1 NBH      -0.621300
     30 C30         13.8810    -6.7010     3.4380 c3         1 NBH      -0.205600
     31 C31         14.5800    -7.8470     4.1720 c3         1 NBH      -0.074100
     32 C32          7.1910    -0.5580    -0.9410 ca         1 NBH      -0.145500
     33 C33          5.8590    -0.7040    -0.6080 ca         1 NBH      -0.099500
     34 H1          -0.3610    -0.0330    -1.0210 hc         1 NBH       0.033700
     35 H2          -0.3610    -0.8670     0.5390 hc         1 NBH       0.033700
     36 H3          -0.3610     0.9010     0.4820 hc         1 NBH       0.033700
     37 H4           1.8910    -0.8840    -0.5110 hc         1 NBH       0.047200
     38 H5           1.8910     0.8850    -0.5110 hc         1 NBH       0.047200
     39 H6           1.6710     0.8790     1.9560 h1         1 NBH       0.038700
     40 H7           1.6880    -0.8900     1.9500 h1         1 NBH       0.038700
     41 H9           3.6070    -0.2490     3.5190 h1         1 NBH       0.042700
     42 H10          5.1110     0.2970     2.7630 h1         1 NBH       0.042700
     43 H11          1.8080     1.3120     3.9930 ha         1 NBH       0.131500
     44 H12          1.1980     3.6530     4.4690 ha         1 NBH       0.128500
     45 H13          2.7070     5.4820     3.7940 ha         1 NBH       0.128000
     46 H14          4.8300     4.9690     2.6480 ha         1 NBH       0.128500
     47 H15          5.4410     2.6280     2.1750 ha         1 NBH       0.131500
     48 H16          3.9500    -1.9980     1.8300 h1         1 NBH       0.042200
     49 H17          3.4980    -1.6420     0.1570 h1         1 NBH       0.042200
     50 H18          6.1990    -1.7630     2.5820 ha         1 NBH       0.135500
     51 H19          8.5790    -1.5150     1.9970 ha         1 NBH       0.143000
     52 H20          9.8120     0.0140    -0.9690 hn         1 NBH       0.323500
     53 H21         12.0850    -1.3760    -1.1680 hc         1 NBH       0.072200
     54 H22         12.2050    -0.3720     0.2830 hc         1 NBH       0.072200
     55 H23         12.9240    -1.3170     2.4030 ha         1 NBH       0.136500
     56 H24         14.2380    -3.0820     3.5160 ha         1 NBH       0.151500
     57 H25         13.9640    -5.5000     0.0060 ha         1 NBH       0.151500
     58 H26         12.6480    -3.7360    -1.1060 ha         1 NBH       0.136500
     59 H27         13.3190    -6.1060     4.1490 h1         1 NBH       0.099700
     60 H28         13.2060    -7.1070     2.6940 h1         1 NBH       0.099700
     61 H29         15.1410    -8.4420     3.4620 hc         1 NBH       0.051367
     62 H30         15.2550    -7.4410     4.9160 hc         1 NBH       0.051367
     63 H31         13.8390    -8.4700     4.6590 hc         1 NBH       0.051367
     64 H32          7.4690    -0.2210    -1.9320 ha         1 NBH       0.143000
     65 H33          5.0910    -0.4760    -1.3370 ha         1 NBH       0.135500
@<TRIPOS>BOND
     1    11    10 ar
     2    11     6 ar
     3     5     6 1
     4     5     4 1
     5    10     9 ar
     6     3     4 1
     7     3     2 1
     8     6     7 ar
     9    12     4 1
    10    12    13 1
    11    33    13 ar
    12    33    32 ar
    13     2     1 1
    14    13    14 ar
    15     9     8 ar
    16     7     8 ar
    17    32    16 ar
    18    14    15 ar
    19    16    15 ar
    20    16    17 1
    21    17    18 1
    22    18    19 2
    23    18    20 1
    24    22    23 ar
    25    22    21 ar
    26    20    21 1
    27    23    24 ar
    28    21    26 ar
    29    28    27 2
    30    24    27 1
    31    24    25 ar
    32    31    30 1
    33    26    25 ar
    34    27    30 1
    35    27    29 2
    36     1    34 1
    37     1    35 1
    38     1    36 1
    39     2    37 1
    40     2    38 1
    41     3    39 1
    42     3    40 1
    43     5    41 1
    44     5    42 1
    45     7    43 1
    46     8    44 1
    47     9    45 1
    48    10    46 1
    49    11    47 1
    50    12    48 1
    51    12    49 1
    52    14    50 1
    53    15    51 1
    54    17    52 1
    55    20    53 1
    56    20    54 1
    57    22    55 1
    58    23    56 1
    59    25    57 1
    60    26    58 1
    61    30    59 1
    62    30    60 1
    63    31    61 1
    64    31    62 1
    65    31    63 1
    66    32    64 1
    67    33    65 1
@<TRIPOS>SUBSTRUCTURE
     1 NBH         1 TEMP              0 ****  ****    0 ROOT
