@<TRIPOS>MOLECULE
NBI
   28    29     1     0     0
SMALL
bcc


@<TRIPOS>ATOM
      1 C1           0.0000     0.0000     0.0000 ca         1 NBI      -0.402200
      2 N1           3.0390     0.9680    -1.5350 ns         1 NBI      -0.022100
      3 O1           1.9360    -0.8760    -2.0980 o          1 NBI      -0.585100
      4 C2           1.3960     0.0000     0.0000 ca         1 NBI      -0.060600
      5 N2          -0.7420     0.0000    -1.2800 no         1 NBI       1.038200
      6 O2          -1.9530    -0.1220    -1.2820 o          1 NBI      -0.435000
      7 C3           2.0880     0.0000     1.2130 ca         1 NBI      -0.100000
      8 O3          -0.1410     0.1220    -2.3330 o          1 NBI      -0.435000
      9 C4           1.3890     0.0000     2.4020 ca         1 NBI      -0.047000
     10 C5           0.0060    -0.0000     2.3950 ca         1 NBI      -0.105000
     11 C6          -0.6870    -0.0060     1.1970 ca         1 NBI      -0.014000
     12 C7           2.1380    -0.0010    -1.2780 c          1 NBI       0.567700
     13 C8           3.6730     1.0210    -2.7800 ca         1 NBI      -0.092400
     14 C9           3.9440     2.2480    -3.3710 ca         1 NBI      -0.110000
     15 C10          4.5710     2.2970    -4.6010 ca         1 NBI      -0.084000
     16 C11          4.9280     1.1260    -5.2440 ca         1 NBI      -0.109000
     17 C12          4.6590    -0.0980    -4.6580 ca         1 NBI      -0.084000
     18 C13          4.0380    -0.1530    -3.4260 ca         1 NBI      -0.110000
     19 HN1          3.2660     1.6400    -0.8290 hn         1 NBI       0.163500
     20 H3           3.1710     0.0000     1.2200 ha         1 NBI       0.116000
     21 H4           1.9250     0.0030     3.3440 ha         1 NBI       0.110000
     22 H5          -0.5380    -0.0020     3.3320 ha         1 NBI       0.116000
     23 H6          -1.7700    -0.0060     1.1990 ha         1 NBI       0.136000
     24 H9           3.6650     3.1660    -2.8690 ha         1 NBI       0.120500
     25 H10          4.7820     3.2530    -5.0630 ha         1 NBI       0.103000
     26 H11          5.4170     1.1670    -6.2100 ha         1 NBI       0.102000
     27 H12          4.9410    -1.0130    -5.1630 ha         1 NBI       0.103000
     28 H13          3.8280    -1.1120    -2.9670 ha         1 NBI       0.120500
@<TRIPOS>BOND
     1     1     4 ar  
     2     1     5 1   
     3     1    11 ar  
     4     2    12 1   
     5     2    13 1   
     6     2    19 1   
     7     3    12 2   
     8     4     7 ar  
     9     4    12 1   
    10     5     6 1   
    11     5     8 1   
    12     7     9 ar  
    13     7    20 1   
    14     9    10 ar  
    15     9    21 1   
    16    10    11 ar  
    17    10    22 1   
    18    11    23 1   
    19    13    14 ar  
    20    13    18 ar  
    21    14    15 ar  
    22    14    24 1   
    23    15    16 ar  
    24    15    25 1   
    25    16    17 ar  
    26    16    26 1   
    27    17    18 ar  
    28    17    27 1   
    29    18    28 1   
@<TRIPOS>SUBSTRUCTURE
     1 NBI         1 TEMP              0 ****  ****    0 ROOT
