@<TRIPOS>MOLECULE
molecule
   52    53     1     0     0
SMALL
bcc


@<TRIPOS>ATOM
      1 C1           0.0000     0.0000     0.0000 c3         1 NBL      -0.065100
      2 C2           1.5290     0.0000     0.0000 c3         1 NBL      -0.446700
      3 C3           2.0400     0.0000     1.4420 c3         1 NBL      -0.065100
      4 C4           2.0410    -1.2480    -0.7210 c3         1 NBL      -0.322400
      5 C5           1.6520    -1.1780    -2.2000 c3         1 NBL      -0.054300
      6 N6           2.0640    -2.4130    -2.8720 ns         1 NBL      -0.425900
      7 C7           1.2390    -3.4780    -2.8900 c          1 NBL       0.678100
      8 O8           0.1180    -3.3870    -2.4290 o          1 NBL      -0.615000
      9 O9           1.6570    -4.6440    -3.4160 os         1 NBL      -0.416900
     10 C10          0.7690    -5.7930    -3.4340 c3         1 NBL       0.219700
     11 C11          1.4730    -6.9620    -4.0720 ca         1 NBL      -0.108300
     12 C12          2.2090    -7.8360    -3.2920 ca         1 NBL      -0.097500
     13 C13          2.8540    -8.9090    -3.8780 ca         1 NBL      -0.131500
     14 C14          2.7640    -9.1090    -5.2430 ca         1 NBL      -0.110000
     15 C15          2.0280    -8.2370    -6.0220 ca         1 NBL      -0.131500
     16 C16          1.3780    -7.1660    -5.4360 ca         1 NBL      -0.097500
     17 C17          2.3390    -0.0010    -2.8440 c          1 NBL       0.680100
     18 O18          3.3540    -0.1680    -3.4870 o          1 NBL      -0.567100
     19 N19          1.8240     1.2360    -2.7070 ns         1 NBL      -0.543900
     20 C20          2.4760     2.3770    -3.3560 c3         1 NBL       0.107700
     21 C21          2.1140     3.6880    -2.6270 c3         1 NBL      -0.114400
     22 C22          1.3890     4.5450    -3.6880 c3         1 NBL       0.238800
     23 N23          0.8600     3.5650    -4.6640 n3         1 NBL      -0.695200
     24 C24          1.9410     2.5550    -4.7930 c3         1 NBL       0.222800
     25 C25         -0.3380     3.5840    -5.2960 c1         1 NBL       0.402600
     26 N26         -1.3330     3.6020    -5.8430 n1         1 NBL      -0.413800
     27 H11         -0.3610    -1.0160    -0.1010 hc         1 NBL       0.032200
     28 H12A        -0.3610     0.5960    -0.8290 hc         1 NBL       0.032200
     29 H13A        -0.3610     0.4200     0.9310 hc         1 NBL       0.032200
     30 H2           1.8910    -0.8840    -0.5110 hc         1 NBL       0.251700
     31 H31          1.7840     0.9400     1.9160 hc         1 NBL       0.032200
     32 H32          1.5810    -0.8160     1.9880 hc         1 NBL       0.032200
     33 H33          3.1160    -0.1250     1.4450 hc         1 NBL       0.032200
     34 H41          1.3970    -1.4670    -1.5640 hc         1 NBL       0.189700
     35 H42          3.0500    -1.0730    -1.0730 hc         1 NBL       0.189700
     36 H5           0.5790    -1.0610    -2.2860 h1         1 NBL       0.132700
     37 HN6          2.4710    -3.1590    -2.3430 hn         1 NBL       0.308500
     38 H101        -0.1200    -5.5520    -4.0040 h1         1 NBL       0.059700
     39 H102         0.4880    -6.0490    -2.4200 h1         1 NBL       0.059700
     40 H12          2.2790    -7.6790    -2.2230 ha         1 NBL       0.134500
     41 H13          3.4310    -9.5930    -3.2670 ha         1 NBL       0.135500
     42 H14          3.2700    -9.9500    -5.7010 ha         1 NBL       0.134000
     43 H15          1.9570    -8.3940    -7.0920 ha         1 NBL       0.135500
     44 H16          0.7980    -6.4850    -6.0470 ha         1 NBL       0.134500
     45 H19          0.9660     1.3690    -2.2090 hn         1 NBL       0.338500
     46 H20          3.5510     2.2430    -3.3720 h1         1 NBL       0.095700
     47 H211         1.2990     3.5170    -1.9340 hc         1 NBL       0.070200
     48 H212         2.9810     4.0780    -2.1080 hc         1 NBL       0.070200
     49 H221         2.1010     5.1780    -4.2050 h1         1 NBL       0.052700
     50 H222         0.6180     5.1450    -3.2190 h1         1 NBL       0.052700
     51 H241         1.3620     1.6870    -5.0860 h1         1 NBL       0.065200
     52 H242         2.7630     2.7140    -5.4800 h1         1 NBL       0.065200
@<TRIPOS>BOND
     1     1     2 1
     2     1    27 1
     3     1    28 1
     4     1    29 1
     5     2     3 1
     6     2     4 1
     7     2    30 1
     8     3    31 1
     9     3    32 1
    10     3    33 1
    11     4     5 1
    12     4    34 1
    13     4    35 1
    14     5     6 1
    15     5    17 1
    16     5    36 1
    17     6     7 1
    18     6    37 1
    19     7     8 2
    20     7     9 1
    21     9    10 1
    22    10    11 1
    23    10    38 1
    24    10    39 1
    25    11    12 ar
    26    11    16 ar
    27    12    13 ar
    28    12    40 1
    29    13    14 ar
    30    13    41 1
    31    14    15 ar
    32    14    42 1
    33    15    16 ar
    34    15    43 1
    35    16    44 1
    36    17    18 2
    37    17    19 1
    38    19    20 1
    39    19    45 1
    40    20    21 1
    41    20    24 1
    42    20    46 1
    43    21    22 1
    44    21    47 1
    45    21    48 1
    46    22    23 1
    47    22    49 1
    48    22    50 1
    49    23    24 1
    50    23    25 1
    51    24    51 1
    52    24    52 1
    53    25    26 3
@<TRIPOS>SUBSTRUCTURE
     1 NBL         1 TEMP              0 ****  ****    0 ROOT
