@<TRIPOS>MOLECULE
NBN
   15    14     1     0     0
SMALL
bcc


@<TRIPOS>ATOM
      1 C          -1.0770    0.0400   -2.3740 c1        1 NBN      0.431800
      2 N          -0.5740   -0.0140   -1.3070 n1        1 NBN     -0.848300
      3 C1          0.0150   -0.0800   -0.0330 c3        1 NBN      0.274100
      4 C2          1.5440    0.0130   -0.0300 c3        1 NBN     -0.096400
      5 C3          2.0570   -0.0680    1.3920 c3        1 NBN     -0.080400
      6 C4          3.5610    0.0190    1.4350 c3        1 NBN     -0.093100
      7 H11        -0.2910   -1.0540    0.4510 h1        1 NBN      0.055700
      8 H12        -0.4010    0.7630    0.5950 h1        1 NBN      0.055700
      9 H21         1.8730    0.9780   -0.4970 hc        1 NBN      0.054700
     10 H22         1.9820   -0.8210   -0.6390 hc        1 NBN      0.054700
     11 H31         1.7230   -1.0320    1.8580 hc        1 NBN      0.041700
     12 H32         1.6140    0.7650    2.0000 hc        1 NBN      0.041700
     13 H41         3.9220   -0.0420    2.4900 hc        1 NBN      0.037033
     14 H42         3.9130    0.9850    0.9970 hc        1 NBN      0.037033
     15 H43         4.0220   -0.8170    0.8550 hc        1 NBN      0.037033
@<TRIPOS>BOND
     1    1    2 3
     2    2    3 1
     3    3    4 1
     4    3    7 1
     5    3    8 1
     6    4    5 1
     7    4    9 1
     8    4   10 1
     9    5    6 1
    10    5   11 1
    11    5   12 1
    12    6   13 1
    13    6   14 1
    14    6   15 1
@<TRIPOS>SUBSTRUCTURE
     1 NBN         1 TEMP              0 ****  ****    0 ROOT
