@<TRIPOS>MOLECULE
NBO
   33    33     1     0     0
SMALL
bcc


@<TRIPOS>ATOM
      1 C1         -0.0030   -0.4150   -0.0580 c3        1 NBO     -0.205100
      2 O1          2.0540   -0.2430   -1.2700 o         1 NBO     -0.531100
      3 C2          1.4800   -0.2610   -0.1770 c         1 NBO      0.563100
      4 C3          2.2070   -0.1350    1.1320 c3        1 NBO     -0.180400
      5 C4          3.6620    0.2530    0.9550 c3        1 NBO     -0.032100
      6 C10'        4.7230   -0.9040    2.9070 ca        1 NBO     -0.126000
      7 C1'         4.3780    0.2900    2.2580 ca        1 NBO     -0.081300
      8 C11'        7.8800    1.3110    8.8610 c3        1 NBO      0.108700
      9 C2'         4.7250    1.5070    2.8450 ca        1 NBO     -0.118000
     10 C3'         5.4160    1.5590    4.0650 ca        1 NBO     -0.042800
     11 C4'         5.7490    2.8730    4.6020 ce        1 NBO     -0.115200
     12 C5'         6.8990    3.1930    5.1960 c2        1 NBO     -0.204000
     13 C6'         6.9440    0.2560    7.0240 c1        1 NBO     -0.010400
     14 C7'         6.4040    0.3300    5.9580 cg        1 NBO     -0.147000
     15 C8'         5.7470    0.3530    4.7170 ca        1 NBO      0.063000
     16 C9'         5.3940   -0.8730    4.1210 ca        1 NBO     -0.116000
     17 H1         -0.2490   -1.2060    0.6910 hc        1 NBO      0.063700
     18 H1A        -0.4530   -0.6910   -1.0420 hc        1 NBO      0.063700
     19 H1B        -0.4500    0.5510    0.2830 hc        1 NBO      0.063700
     20 H3          1.6800    0.6270    1.7660 hc        1 NBO      0.068700
     21 H3A         2.1390   -1.1210    1.6660 hc        1 NBO      0.068700
     22 H4          3.7180    1.2530    0.4480 hc        1 NBO      0.063700
     23 H4A         4.1580   -0.4870    0.2690 hc        1 NBO      0.063700
     24 H10'        4.4600   -1.8690    2.4480 ha        1 NBO      0.134000
     25 H11'        8.5760    1.9150    8.2330 h1        1 NBO      0.053700
     26 H11A        8.3800    0.9570    9.7960 h1        1 NBO      0.053700
     27 H11B        6.9520    1.8860    9.0910 h1        1 NBO      0.053700
     28 H2'         4.4620    2.4500    2.3400 ha        1 NBO      0.135000
     29 H4'         4.9640    3.6360    4.4540 ha        1 NBO      0.124000
     30 H5'         7.0970    4.2090    5.5610 ha        1 NBO      0.116000
     31 H7'         7.7110    2.4710    5.3520 ha        1 NBO      0.116000
     32 H9'         5.6580   -1.8130    4.6290 ha        1 NBO      0.141000
     33 O2'         7.5460    0.0780    8.1910 os        1 NBO     -0.209400
@<TRIPOS>BOND
     1    1    3 1   
     2    1   17 1   
     3    1   18 1   
     4    1   19 1   
     5    2    3 2   
     6    3    4 1   
     7    4    5 1   
     8    4   20 1   
     9    4   21 1   
    10    5    7 1   
    11    5   22 1   
    12    5   23 1   
    13    6    7 ar  
    14    6   16 ar  
    15    6   24 1   
    16    7    9 ar  
    17    8   25 1   
    18    8   26 1   
    19    8   27 1   
    20    8   33 1   
    21    9   10 ar  
    22    9   28 1   
    23   10   11 1   
    24   10   15 ar  
    25   11   12 2   
    26   11   29 1   
    27   12   30 1   
    28   12   31 1   
    29   13   14 3   
    30   13   33 1   
    31   14   15 1   
    32   15   16 ar  
    33   16   32 1   
@<TRIPOS>SUBSTRUCTURE
     1 NBO         1 TEMP              0 ****  ****    0 ROOT
