@<TRIPOS>MOLECULE
molecule
   33    34     1     0     0
SMALL
bcc


@<TRIPOS>ATOM
      1 C1           0.0000     0.0000     0.0000 c3         1 NBO      -0.196100
      2 O1           2.1120    -0.0010    -1.0450 o          1 NBO      -0.526100
      3 C2           1.5070     0.0000     0.0000 c          1 NBO       0.559100
      4 C3           2.2600     0.0000     1.3060 c3         1 NBO      -0.180400
      5 C4           3.7650    -0.0000     1.0270 c3         1 NBO      -0.026100
      6 C10'         4.8600    -1.2110     2.9270 ca         1 NBO      -0.112000
      7 C1'          4.5170     0.0010     2.3330 ca         1 NBO      -0.096300
      8 C11'         7.9440     2.4240     8.2710 c3         1 NBO       0.128700
      9 C2'          4.8530     1.1860     2.9120 ca         1 NBO      -0.104000
     10 C3'          5.5540     1.1900     4.1290 ca         1 NBO      -0.066000
     11 C4'          5.9170     2.3950     4.7570 ca         1 NBO      -0.079000
     12 C5'          6.5960     2.3640     5.9350 ca         1 NBO      -0.203000
     13 C6'          6.9410     1.1480     6.5340 ca         1 NBO       0.140100
     14 C7'          6.6050    -0.0400     5.9520 ca         1 NBO      -0.162000
     15 C8'          5.9030    -0.0430     4.7350 ca         1 NBO      -0.001000
     16 C9'          5.5390    -1.2460     4.1060 ca         1 NBO      -0.122000
     17 H1          -0.3610     0.8840     0.5120 hc         1 NBO       0.060700
     18 H1A         -0.3610     0.0020    -1.0210 hc         1 NBO       0.060700
     19 H1B         -0.3610    -0.8850     0.5090 hc         1 NBO       0.060700
     20 H3           1.9980     0.8850     1.8740 hc         1 NBO       0.067700
     21 H3A          1.9980    -0.8840     1.8740 hc         1 NBO       0.067700
     22 H4           4.0270     0.8840     0.4580 hc         1 NBO       0.061200
     23 H4A          4.0270    -0.8850     0.4600 hc         1 NBO       0.061200
     24 H10'         4.5830    -2.1400     2.4430 ha         1 NBO       0.130000
     25 H11'         8.5650     2.9770     7.5770 h1         1 NBO       0.041033
     26 H11A         7.0290     2.9750     8.4560 h1         1 NBO       0.041033
     27 H11B         8.4780     2.2890     9.2040 h1         1 NBO       0.041033
     28 H2'          4.6840     2.1150     2.3810 ha         1 NBO       0.133000
     29 H4'          5.6560     3.3440     4.3040 ha         1 NBO       0.134000
     30 H5'          6.8740     3.2940     6.4160 ha         1 NBO       0.134000
     31 H7'          6.7750    -0.9700     6.4810 ha         1 NBO       0.147000
     32 H9'          5.7990    -2.1960     4.5560 ha         1 NBO       0.135000
     33 O2'          7.6190     1.1500     7.7110 os         1 NBO      -0.329900
@<TRIPOS>BOND
     1     1     3 1
     2     2     3 2
     3     3     4 1
     4     4     5 1
     5     5     7 1
     6     6     7 ar
     7     6    16 ar
     8     7     9 ar
     9     8    33 1
    10     9    10 ar
    11    33    13 1
    12    10    11 ar
    13    10    15 ar
    14    11    12 ar
    15    12    13 ar
    16    13    14 ar
    17    14    15 ar
    18    15    16 ar
    19     1    17 1
    20     1    18 1
    21     1    19 1
    22     4    20 1
    23     4    21 1
    24     5    22 1
    25     5    23 1
    26     6    24 1
    27     8    25 1
    28     8    26 1
    29     8    27 1
    30     9    28 1
    31    11    29 1
    32    12    30 1
    33    14    31 1
    34    16    32 1
@<TRIPOS>SUBSTRUCTURE
     1 NBO         1 TEMP              0 ****  ****    0 ROOT
