@<TRIPOS>MOLECULE
molecule
   72    75     1     0     0
SMALL
bcc


@<TRIPOS>ATOM
      1 CAQ          0.0000     0.0000     0.0000 c3         1 NBR       0.056100
      2 NAP          1.4800     0.0000     0.0000 nh         1 NBR      -0.331100
      3 CAT          2.2750     0.0000     1.2460 c3         1 NBR       0.056100
      4 CAM          2.0830    -0.1390    -1.1940 cc         1 NBR       0.014200
      5 CAN          2.7440    -1.3410    -1.4900 cc         1 NBR      -0.139750
      6 CAO          3.3400    -1.5380    -2.7360 cd         1 NBR      -0.099750
      7 CAL          2.0020     0.8760    -2.1550 cc         1 NBR      -0.139750
      8 CAK          2.6050     0.6960    -3.4010 cd         1 NBR      -0.099750
      9 NAJ          3.2990    -0.5010    -3.6830 na         1 NBR      -0.365200
     10 CAA          3.8820    -0.7340    -4.9930 c3         1 NBR       0.291100
     11 CAU          5.2500    -1.1010    -5.0870 ca         1 NBR      -0.142300
     12 CAZ          6.2110    -0.5970    -4.2260 ca         1 NBR      -0.085250
     13 CAY          7.5670    -0.9180    -4.4080 ca         1 NBR      -0.169500
     14 CAV          5.6190    -1.9450    -6.1110 ca         1 NBR      -0.085250
     15 CAW          6.9650    -2.2960    -6.2750 ca         1 NBR      -0.169500
     16 CAX          7.9470    -1.7750    -5.4240 ca         1 NBR       0.124600
     17 OBA          9.3340    -2.1130    -5.5380 os         1 NBR      -0.328900
     18 CBB          9.6860    -2.9630    -6.6000 c3         1 NBR       0.126900
     19 CBC         11.1750    -2.7120    -6.8820 c3         1 NBR       0.126900
     20 OBD         11.2980    -1.3320    -7.3940 os         1 NBR      -0.328900
     21 CBE         12.5860    -1.0830    -7.9420 ca         1 NBR       0.124600
     22 CBJ         13.5610    -2.0400    -8.0430 ca         1 NBR      -0.169500
     23 CBI         14.7580    -1.6750    -8.6430 ca         1 NBR      -0.085250
     24 CBF         12.7330     0.1830    -8.4500 ca         1 NBR      -0.169500
     25 CBG         13.9680     0.5600    -9.0700 ca         1 NBR      -0.085250
     26 CBH         14.9550    -0.3910    -9.1680 ca         1 NBR      -0.142300
     27 CAB         16.2700    -0.1080    -9.8130 c3         1 NBR       0.113600
     28 NAC         16.2180    -0.7660   -11.1280 na         1 NBR      -0.139100
     29 CAD         15.3370    -0.3600   -12.1430 ca         1 NBR      -0.124050
     30 CAE         15.2110    -1.0000   -13.3350 ca         1 NBR      -0.139750
     31 CAF         15.9250    -2.1780   -13.6500 ca         1 NBR       0.041100
     32 NAI         15.7940    -2.8670   -14.7830 nh         1 NBR      -0.713000
     33 CAS         14.7430    -2.4880   -15.7840 c3         1 NBR       0.233600
     34 CAR         16.5160    -4.0540   -15.0780 c3         1 NBR       0.233600
     35 CAG         16.8600    -2.5340   -12.6590 ca         1 NBR      -0.139750
     36 CAH         16.9730    -1.8890   -11.5010 ca         1 NBR      -0.124050
     37 HAQ1        -0.3610     1.0190     0.0650 h1         1 NBR       0.029033
     38 HAQ2        -0.3610    -0.4530    -0.9150 h1         1 NBR       0.029033
     39 HAQ3        -0.3610    -0.5660     0.8500 h1         1 NBR       0.029033
     40 HAT1         3.2600     0.4060     1.0460 h1         1 NBR       0.029033
     41 HAT2         1.7780     0.6090     1.9920 h1         1 NBR       0.029033
     42 HAT3         2.3710    -1.0150     1.6140 h1         1 NBR       0.029033
     43 HAN          2.7710    -2.1340    -0.7530 ha         1 NBR       0.130750
     44 HAL          1.4690     1.7930    -1.9360 ha         1 NBR       0.130750
     45 HAO          3.8610    -2.4620    -2.9550 h4         1 NBR       0.141000
     46 HAK          2.5610     1.4840    -4.1420 h4         1 NBR       0.141000
     47 HAA1         3.7490     0.1710    -5.5730 h1         1 NBR       0.053450
     48 HAA2         3.3030    -1.5170    -5.4700 h1         1 NBR       0.053450
     49 HAZ          5.9190     0.0750    -3.4280 ha         1 NBR       0.139000
     50 HAV          4.8660    -2.3530    -6.7750 ha         1 NBR       0.139000
     51 HAY          8.3130    -0.5120    -3.7350 ha         1 NBR       0.143000
     52 HAW          7.2510    -2.9640    -7.0780 ha         1 NBR       0.143000
     53 HBB1         9.5300    -3.9970    -6.3160 h1         1 NBR       0.049450
     54 HBB2         9.0970    -2.7260    -7.4780 h1         1 NBR       0.049450
     55 HBC1        11.5340    -3.4150    -7.6240 h1         1 NBR       0.049450
     56 HBC2        11.7460    -2.8180    -5.9670 h1         1 NBR       0.049450
     57 HBJ         13.4150    -3.0340    -7.6380 ha         1 NBR       0.143000
     58 HBF         11.9310     0.9040    -8.3530 ha         1 NBR       0.143000
     59 HBI         15.5490    -2.4100    -8.7340 ha         1 NBR       0.139000
     60 HBG         14.1080     1.5550    -9.4760 ha         1 NBR       0.139000
     61 HAB1        17.0760    -0.5230    -9.2190 h1         1 NBR       0.053450
     62 HAB2        16.4060     0.9600    -9.9340 h1         1 NBR       0.053450
     63 HAD         14.7520     0.5370   -11.9820 h4         1 NBR       0.141000
     64 HAH         17.7230    -2.2420   -10.8030 h4         1 NBR       0.141000
     65 HAE         14.5050    -0.6120   -14.0590 ha         1 NBR       0.130750
     66 HAG         17.4790    -3.4080   -12.8230 ha         1 NBR       0.130750
     67 HAS1        14.9290    -1.4820   -16.1390 h1         1 NBR       0.029033
     68 HAS2        14.7750    -3.1770   -16.6200 h1         1 NBR       0.029033
     69 HAS3        13.7670    -2.5310   -15.3170 h1         1 NBR       0.029033
     70 HAR1        17.5790    -3.8460   -15.0510 h1         1 NBR       0.029033
     71 HAR2        16.2420    -4.4070   -16.0650 h1         1 NBR       0.029033
     72 HAR3        16.2780    -4.8140   -14.3430 h1         1 NBR       0.029033
@<TRIPOS>BOND
     1     1     2 1
     2     2     3 1
     3     2     4 2
     4     4     5 1
     5     4     7 1
     6     5     6 2
     7     6     9 1
     8     7     8 2
     9     8     9 1
    10     9    10 1
    11    10    11 1
    12    11    12 ar
    13    11    14 ar
    14    12    13 ar
    15    13    16 ar
    16    14    15 ar
    17    15    16 ar
    18    16    17 1
    19    17    18 1
    20    18    19 1
    21    19    20 1
    22    20    21 1
    23    21    22 ar
    24    21    24 ar
    25    22    23 ar
    26    23    26 ar
    27    24    25 ar
    28    25    26 ar
    29    26    27 1
    30    27    28 1
    31    28    29 1
    32    28    36 2
    33    29    30 ar
    34    30    31 ar
    35    31    32 1
    36    31    35 ar
    37    32    33 1
    38    32    34 1
    39    35    36 ar
    40     1    37 1
    41     1    38 1
    42     1    39 1
    43     3    40 1
    44     3    41 1
    45     3    42 1
    46     5    43 1
    47     7    44 1
    48     6    45 1
    49     8    46 1
    50    10    47 1
    51    10    48 1
    52    12    49 1
    53    14    50 1
    54    13    51 1
    55    15    52 1
    56    18    53 1
    57    18    54 1
    58    19    55 1
    59    19    56 1
    60    22    57 1
    61    24    58 1
    62    23    59 1
    63    25    60 1
    64    27    61 1
    65    27    62 1
    66    29    63 1
    67    36    64 1
    68    30    65 1
    69    35    66 1
    70    33    67 1
    71    33    68 1
    72    33    69 1
    73    34    70 1
    74    34    71 1
    75    34    72 1
@<TRIPOS>SUBSTRUCTURE
     1 NBR         1 TEMP              0 ****  ****    0 ROOT
