@<TRIPOS>MOLECULE
NBT
   16    15     1     0     0
SMALL
bcc


@<TRIPOS>ATOM
      1 C1           0.0000     0.0000     0.0000 c3         1 NBT       0.015900
      2 C2           1.5290     0.0000     0.0000 c3         1 NBT      -0.309000
      3 C3           2.0400     0.0000     1.4420 c3         1 NBT      -0.023400
      4 C4           3.5650     0.1250     1.4430 c3         1 NBT      -0.011100
      5 NCG          2.0170    -1.1960    -0.6920 no         1 NBT       0.953300
      6 H1C1        -0.3610     0.9410     0.3960 hc         1 NBT       0.021367
      7 H1C2        -0.3610    -0.8140     0.6170 hc         1 NBT       0.021367
      8 H1C3        -0.3610    -0.1280    -1.0130 hc         1 NBT       0.021367
      9 H2           1.8900     0.8850    -0.5110 h1         1 NBT       0.079700
     10 H3C1         1.7530    -0.9250     1.9260 hc         1 NBT       0.037200
     11 H3C2         1.6080     0.8370     1.9770 hc         1 NBT       0.037200
     12 H4C1         4.0050    -0.8220     1.1550 hc         1 NBT       0.012700
     13 H4C2         3.9040     0.3930     2.4370 hc         1 NBT       0.012700
     14 H4C3         3.8650     0.8920     0.7400 hc         1 NBT       0.012700
     15 O15          1.7230    -2.3030    -0.2740 o          1 NBT      -0.441000
     16 O16          2.7170    -1.0850    -1.6810 o          1 NBT      -0.441000
@<TRIPOS>BOND
     1     1     2 1   
     2     1     6 1   
     3     1     7 1   
     4     1     8 1   
     5     2     3 1   
     6     2     5 1   
     7     2     9 1   
     8     3     4 1   
     9     3    10 1   
    10     3    11 1   
    11     4    12 1   
    12     4    13 1   
    13     4    14 1   
    14     5    15 1   
    15     5    16 1   
@<TRIPOS>SUBSTRUCTURE
     1 NBT         1 TEMP              0 ****  ****    0 ROOT
