@<TRIPOS>MOLECULE
molecule
   14    13     1     0     0
SMALL
bcc


@<TRIPOS>ATOM
      1 C1           0.0000     0.0000     0.0000 c3         1 NBU      -0.092100
      2 C2           1.5300     0.0000     0.0000 c3         1 NBU      -0.084400
      3 C3           2.0400     0.0000     1.4410 c3         1 NBU      -0.084400
      4 C4           3.5700    -0.0000     1.4410 c3         1 NBU      -0.092100
      5 H11         -0.3610    -0.0000    -1.0210 hc         1 NBU       0.032367
      6 H12         -0.3610    -0.8850     0.5110 hc         1 NBU       0.032367
      7 H13         -0.3610     0.8850     0.5110 hc         1 NBU       0.032367
      8 H21          1.8900     0.8840    -0.5110 hc         1 NBU       0.039700
      9 H22          1.8900    -0.8840    -0.5110 hc         1 NBU       0.039700
     10 H31          1.6790     0.8840     1.9520 hc         1 NBU       0.039700
     11 H32          1.6790    -0.8840     1.9520 hc         1 NBU       0.039700
     12 H41          3.9310     0.8850     0.9300 hc         1 NBU       0.032367
     13 H42          3.9310    -0.0000     2.4620 hc         1 NBU       0.032367
     14 H43          3.9310    -0.8850     0.9300 hc         1 NBU       0.032367
@<TRIPOS>BOND
     1     1     2 1
     2     1     5 1
     3     1     6 1
     4     1     7 1
     5     2     3 1
     6     2     8 1
     7     2     9 1
     8     3     4 1
     9     3    10 1
    10     3    11 1
    11     4    12 1
    12     4    13 1
    13     4    14 1
@<TRIPOS>SUBSTRUCTURE
     1 NBU         1 TEMP              0 ****  ****    0 ROOT
