@<TRIPOS>MOLECULE
NBU
   14    13     1     0     0
SMALL
bcc


@<TRIPOS>ATOM
      1 C1          0.0060    0.0000   -0.0010 c3        1 NBU     -0.092100
      2 C2          1.5130   -0.0000    0.0140 c3        1 NBU     -0.080400
      3 C3          2.0570   -0.0000    1.4270 c3        1 NBU     -0.080400
      4 C4          3.5630    0.0000    1.4420 c3        1 NBU     -0.092100
      5 H11        -0.3720    0.0000   -1.0520 hc        1 NBU      0.032367
      6 H12        -0.3930    0.9050    0.5180 hc        1 NBU      0.032367
      7 H13        -0.3930   -0.9050    0.5180 hc        1 NBU      0.032367
      8 H21         1.8960   -0.9020   -0.5320 hc        1 NBU      0.038700
      9 H22         1.8960    0.9020   -0.5320 hc        1 NBU      0.038700
     10 H31         1.6740    0.9020    1.9740 hc        1 NBU      0.038700
     11 H32         1.6740   -0.9020    1.9740 hc        1 NBU      0.038700
     12 H41         3.9630   -0.9050    0.9230 hc        1 NBU      0.032367
     13 H42         3.9420    0.0000    2.4930 hc        1 NBU      0.032367
     14 H43         3.9630    0.9050    0.9230 hc        1 NBU      0.032367
@<TRIPOS>BOND
     1    1    2 1   
     2    1    5 1   
     3    1    6 1   
     4    1    7 1   
     5    2    3 1   
     6    2    8 1   
     7    2    9 1   
     8    3    4 1   
     9    3   10 1   
    10    3   11 1   
    11    4   12 1   
    12    4   13 1   
    13    4   14 1   
@<TRIPOS>SUBSTRUCTURE
     1 NBU         1 TEMP              0 ****  ****    0 ROOT
