@<TRIPOS>MOLECULE
molecule
   36    36     1     0     0
SMALL
bcc


@<TRIPOS>ATOM
      1 O9           0.0000     0.0000     0.0000 oh         1 NBV      -0.599800
      2 C12          1.4290     0.0000     0.0000 c3         1 NBV       0.143400
      3 C11          1.9390     0.0000     1.4420 c3         1 NBV       0.177500
      4 C10          1.3580    -1.2030     2.1900 c3         1 NBV       0.146100
      5 O1           1.7820    -2.4100     1.5520 oh         1 NBV      -0.611800
      6 C9           1.8560    -1.1870     3.6370 c3         1 NBV       0.121100
      7 O8           1.2720    -2.2760     4.3550 oh         1 NBV      -0.605800
      8 C8           1.4490     0.1350     4.2940 c3         1 NBV       0.136100
      9 O7           1.9580     0.1810     5.6280 oh         1 NBV      -0.605800
     10 N1           1.5210     1.2400     2.1090 n3         1 NBV      -0.718600
     11 C7           2.0280     1.2990     3.4860 c3         1 NBV       0.138800
     12 C13          1.9440     2.4190     1.3410 c3         1 NBV       0.162800
     13 C14          1.3440     3.6780     1.9680 c3         1 NBV      -0.083400
     14 C15          1.7840     4.9060     1.1690 c3         1 NBV      -0.085400
     15 C16          1.1830     6.1660     1.7960 c3         1 NBV      -0.091100
     16 H9          -0.3140    -0.1160    -0.8810 ho         1 NBV       0.398000
     17 H121         1.7900    -0.8850    -0.5110 h1         1 NBV       0.030700
     18 H122         1.7900     0.8840    -0.5110 h1         1 NBV       0.030700
     19 H11          3.0210    -0.0630     1.4460 h1         1 NBV       0.041700
     20 H10          0.2770    -1.1440     2.1800 h1         1 NBV       0.077700
     21 H1           1.0850    -3.0440     1.5840 ho         1 NBV       0.415000
     22 HA           2.9350    -1.2770     3.6480 h1         1 NBV       0.052700
     23 H8           1.9550    -2.8180     4.7130 ho         1 NBV       0.411000
     24 HB           0.3680     0.2100     4.3110 h1         1 NBV       0.060700
     25 H7           1.2800     0.4750     6.2140 ho         1 NBV       0.408000
     26 H7C1         1.7280     2.2360     3.9400 h1         1 NBV       0.046700
     27 H7C2         3.1090     1.2270     3.4750 h1         1 NBV       0.046700
     28 H131         1.6010     2.3260     0.3180 h1         1 NBV       0.037200
     29 H132         3.0250     2.4890     1.3550 h1         1 NBV       0.037200
     30 H141         0.2630     3.6080     1.9550 hc         1 NBV       0.050700
     31 H142         1.6870     3.7710     2.9910 hc         1 NBV       0.050700
     32 H151         1.4410     4.8140     0.1460 hc         1 NBV       0.039200
     33 H152         2.8650     4.9770     1.1830 hc         1 NBV       0.039200
     34 H161         1.5230     6.2570     2.8210 hc         1 NBV       0.033700
     35 H162         0.1020     6.0970     1.7790 hc         1 NBV       0.033700
     36 H163         1.4980     7.0360     1.2320 hc         1 NBV       0.033700
@<TRIPOS>BOND
     1     1     2 1
     2     1    16 1
     3     2     3 1
     4     2    17 1
     5     2    18 1
     6     3     4 1
     7     3    10 1
     8     3    19 1
     9     4     5 1
    10     4     6 1
    11     4    20 1
    12     5    21 1
    13     6     7 1
    14     6     8 1
    15     6    22 1
    16     7    23 1
    17     8     9 1
    18     8    11 1
    19     8    24 1
    20     9    25 1
    21    10    11 1
    22    10    12 1
    23    11    26 1
    24    11    27 1
    25    12    13 1
    26    12    28 1
    27    12    29 1
    28    13    14 1
    29    13    30 1
    30    13    31 1
    31    14    15 1
    32    14    32 1
    33    14    33 1
    34    15    34 1
    35    15    35 1
    36    15    36 1
@<TRIPOS>SUBSTRUCTURE
     1 NBV         1 TEMP              0 ****  ****    0 ROOT
