@<TRIPOS>MOLECULE
molecule
   43    44     1     0     0
SMALL
bcc


@<TRIPOS>ATOM
      1 O5           0.0000     0.0000     0.0000 os         1 NBX      -0.418600
      2 C1           1.4290     0.0000     0.0000 c3         1 NBX       0.335500
      3 C2           1.9380     0.0000     1.4440 c3         1 NBX       0.096100
      4 O2           3.3660    -0.0580     1.4490 oh         1 NBX      -0.589800
      5 C3           1.3730    -1.2210     2.1770 c3         1 NBX       0.110100
      6 O3           1.7830    -1.1900     3.5450 oh         1 NBX      -0.608800
      7 C4          -0.1570    -1.1880     2.0980 c3         1 NBX       0.099100
      8 O4          -0.6910    -2.3600     2.7150 oh         1 NBX      -0.599800
      9 C5          -0.5840    -1.1430     0.6300 c3         1 NBX       0.153100
     10 C6          -2.1080    -1.0490     0.5440 c3         1 NBX       0.152400
     11 O6          -2.5140    -1.1220    -0.8240 oh         1 NBX      -0.591800
     12 N1           1.9170     1.1960    -0.6900 ns         1 NBX      -0.580900
     13 C7           2.2390     1.1360    -1.9980 c          1 NBX       0.781100
     14 O7           2.1230     0.0890    -2.6040 o          1 NBX      -0.574100
     15 N2           2.6880     2.2360    -2.6320 ns         1 NBX      -0.591500
     16 C8           3.0100     2.1750    -3.9410 c          1 NBX       0.683700
     17 O8           2.8940     1.1290    -4.5460 o          1 NBX      -0.527100
     18 C9           3.5010     3.3790    -4.6350 ca         1 NBX      -0.218600
     19 C10          3.8360     3.3180    -5.9920 ca         1 NBX      -0.033000
     20 C11          4.2920     4.4400    -6.6350 ca         1 NBX      -0.223500
     21 C12          4.4240     5.6390    -5.9380 ca         1 NBX       0.230600
     22 C13          4.0930     5.7020    -4.5880 ca         1 NBX      -0.223500
     23 C14          3.6290     4.5860    -3.9400 ca         1 NBX      -0.033000
     24 N3           4.8890     6.7730    -6.5940 nv         1 NBX      -0.909200
     25 H1           1.7880    -0.8870    -0.5070 h2         1 NBX       0.100700
     26 H2           1.6060     0.9030     1.9420 h1         1 NBX       0.048700
     27 HO2          3.7010     0.4950     2.1350 ho         1 NBX       0.411000
     28 H3           1.7380    -2.1250     1.7050 h1         1 NBX       0.067700
     29 HO3          2.2370    -1.9890     3.7560 ho         1 NBX       0.417000
     30 H4          -0.5240    -0.3050     2.6080 h1         1 NBX       0.053700
     31 HO4         -1.0540    -2.1360     3.5560 ho         1 NBX       0.413000
     32 H5          -0.2440    -2.0410     0.1290 h1         1 NBX       0.071700
     33 H6          -2.5520    -1.8680     1.0970 h1         1 NBX       0.033700
     34 H6A         -2.4360    -0.1080     0.9680 h1         1 NBX       0.033700
     35 HO6         -3.4480    -1.2480    -0.8680 ho         1 NBX       0.402000
     36 HN1          1.9780     2.0670    -0.2000 hn         1 NBX       0.306500
     37 HN2          2.8070     3.0920    -2.1270 hn         1 NBX       0.311500
     38 H10          3.7330     2.3860    -6.5340 ha         1 NBX       0.138500
     39 H11          4.5510     4.3940    -7.6860 ha         1 NBX       0.133500
     40 H13          4.1950     6.6370    -4.0500 ha         1 NBX       0.133500
     41 H14          3.3720     4.6370    -2.8890 ha         1 NBX       0.138500
     42 HN3          4.9960     7.6320    -6.0910 hn         1 NBX       0.433300
     43 HN3A         5.1150     6.7310    -7.5670 hn         1 NBX       0.433300
@<TRIPOS>BOND
     1     1     2 1
     2     1     9 1
     3     2     3 1
     4     2    12 1
     5     3     4 1
     6     3     5 1
     7     5     6 1
     8     5     7 1
     9     7     8 1
    10     7     9 1
    11     9    10 1
    12    10    11 1
    13    12    13 1
    14    13    14 2
    15    13    15 1
    16    15    16 1
    17    16    17 2
    18    16    18 1
    19    18    19 ar
    20    18    23 ar
    21    19    20 ar
    22    20    21 ar
    23    21    22 ar
    24    21    24 1
    25    22    23 ar
    26     2    25 1
    27     3    26 1
    28     4    27 1
    29     5    28 1
    30     6    29 1
    31     7    30 1
    32     8    31 1
    33     9    32 1
    34    10    33 1
    35    10    34 1
    36    11    35 1
    37    12    36 1
    38    15    37 1
    39    19    38 1
    40    20    39 1
    41    22    40 1
    42    23    41 1
    43    24    42 1
    44    24    43 1
@<TRIPOS>SUBSTRUCTURE
     1 NBX         1 TEMP              0 ****  ****    0 ROOT
