@<TRIPOS>MOLECULE
NBX
   43    44     1     0     0
SMALL
bcc


@<TRIPOS>ATOM
      1 O5           0.0000     0.0000     0.0000 os         1 NBX      -0.400600
      2 C1           1.4290     0.0000     0.0000 c3         1 NBX       0.237500
      3 C2           1.9380     0.0000     1.4440 c3         1 NBX       0.131100
      4 O2           3.3660    -0.0580     1.4490 oh         1 NBX      -0.573800
      5 C3           1.3730    -1.2210     2.1770 c3         1 NBX       0.148100
      6 O3           1.7830    -1.1900     3.5450 oh         1 NBX      -0.591800
      7 C4          -0.1570    -1.1880     2.0980 c3         1 NBX       0.137100
      8 O4          -0.6910    -2.3600     2.7150 oh         1 NBX      -0.579800
      9 C5          -0.5840    -1.1430     0.6300 c3         1 NBX       0.173100
     10 C6          -2.1080    -1.0490     0.5440 c3         1 NBX       0.225400
     11 O6          -2.5140    -1.1220    -0.8240 oh         1 NBX      -0.574800
     12 N1           1.9170     1.1960    -0.6900 ns         1 NBX      -0.195900
     13 C7           2.2390     1.1360    -1.9980 c          1 NBX       0.568100
     14 O7           2.1230     0.0890    -2.6040 o          1 NBX      -0.613100
     15 N2           2.6880     2.2360    -2.6320 ns         1 NBX      -0.182500
     16 C8           3.0100     2.1750    -3.9410 c          1 NBX       0.599700
     17 O8           2.8940     1.1290    -4.5460 o          1 NBX      -0.557100
     18 C9           3.5010     3.3790    -4.6350 ca         1 NBX      -0.237600
     19 C10          3.8360     3.3180    -5.9920 ca         1 NBX       0.000500
     20 C11          4.2920     4.4400    -6.6350 ca         1 NBX      -0.204500
     21 C12          4.4240     5.6390    -5.9380 ca         1 NBX       0.077600
     22 C13          4.0930     5.7020    -4.5880 ca         1 NBX      -0.204500
     23 C14          3.6290     4.5860    -3.9400 ca         1 NBX       0.000500
     24 N3           4.8890     6.7730    -6.5940 nv         1 NBX      -0.428200
     25 H1           1.7880    -0.8870    -0.5070 h2         1 NBX       0.066700
     26 H2           1.6060     0.9030     1.9420 h1         1 NBX       0.015700
     27 HO2          3.7010     0.4950     2.1350 ho         1 NBX       0.397000
     28 H3           1.7380    -2.1250     1.7050 h1         1 NBX       0.031700
     29 HO3          2.2370    -1.9890     3.7560 ho         1 NBX       0.403000
     30 H4          -0.5240    -0.3050     2.6080 h1         1 NBX       0.018700
     31 HO4         -1.0540    -2.1360     3.5560 ho         1 NBX       0.398000
     32 H5          -0.2440    -2.0410     0.1290 h1         1 NBX       0.037700
     33 H6          -2.5520    -1.8680     1.0970 h1         1 NBX      -0.004800
     34 H6A         -2.4360    -0.1080     0.9680 h1         1 NBX      -0.004800
     35 HO6         -3.4480    -1.2480    -0.8680 ho         1 NBX       0.386000
     36 HN1          1.9780     2.0670    -0.2000 hn         1 NBX       0.161500
     37 HN2          2.8070     3.0920    -2.1270 hn         1 NBX       0.167500
     38 H10          3.7330     2.3860    -6.5340 ha         1 NBX       0.108000
     39 H11          4.5510     4.3940    -7.6860 ha         1 NBX       0.111000
     40 H13          4.1950     6.6370    -4.0500 ha         1 NBX       0.111000
     41 H14          3.3720     4.6370    -2.8890 ha         1 NBX       0.108000
     42 HN3          4.9960     7.6320    -6.0910 hn         1 NBX       0.267300
     43 HN3A         5.1150     6.7310    -7.5670 hn         1 NBX       0.267300
@<TRIPOS>BOND
     1     1     2 1   
     2     1     9 1   
     3     2     3 1   
     4     2    12 1   
     5     2    25 1   
     6     3     4 1   
     7     3     5 1   
     8     3    26 1   
     9     4    27 1   
    10     5     6 1   
    11     5     7 1   
    12     5    28 1   
    13     6    29 1   
    14     7     8 1   
    15     7     9 1   
    16     7    30 1   
    17     8    31 1   
    18     9    10 1   
    19     9    32 1   
    20    10    11 1   
    21    10    33 1   
    22    10    34 1   
    23    11    35 1   
    24    12    13 1   
    25    12    36 1   
    26    13    14 2   
    27    13    15 1   
    28    15    16 1   
    29    15    37 1   
    30    16    17 2   
    31    16    18 1   
    32    18    19 ar  
    33    18    23 ar  
    34    19    20 ar  
    35    19    38 1   
    36    20    21 ar  
    37    20    39 1   
    38    21    22 ar  
    39    21    24 1   
    40    22    23 ar  
    41    22    40 1   
    42    23    41 1   
    43    24    42 1   
    44    24    43 1   
@<TRIPOS>SUBSTRUCTURE
     1 NBX         1 TEMP              0 ****  ****    0 ROOT
