@<TRIPOS>MOLECULE
NBY
   43    44     1     0     0
SMALL
bcc


@<TRIPOS>ATOM
      1 O5           0.0000     0.0000     0.0000 os         1 NBY      -0.400600
      2 C1           1.4290     0.0000     0.0000 c3         1 NBY       0.237500
      3 C2           1.9390     0.0000     1.4430 c3         1 NBY       0.131100
      4 O2           3.3670    -0.0580     1.4450 oh         1 NBY      -0.575800
      5 C3           1.3750    -1.2220     2.1760 c3         1 NBY       0.147100
      6 O3           1.7870    -1.1910     3.5440 oh         1 NBY      -0.590800
      7 C4          -0.1540    -1.1880     2.0990 c3         1 NBY       0.136100
      8 O4          -0.6890    -2.3620     2.7160 oh         1 NBY      -0.578800
      9 C5          -0.5830    -1.1430     0.6300 c3         1 NBY       0.173100
     10 C6          -2.1080    -1.0500     0.5460 c3         1 NBY       0.225400
     11 O6          -2.5150    -1.1220    -0.8210 oh         1 NBY      -0.575800
     12 N1           1.9170     1.1950    -0.6910 ns         1 NBY      -0.186900
     13 C7           2.2380     1.1360    -1.9990 c          1 NBY       0.566100
     14 O7           2.1230     0.0880    -2.6050 o          1 NBY      -0.608100
     15 N2           2.6880     2.2360    -2.6340 ns         1 NBY      -0.174500
     16 C8           3.0080     2.1750    -3.9410 c          1 NBY       0.575700
     17 O8           2.8920     1.1290    -4.5470 o          1 NBY      -0.533100
     18 C9           3.5000     3.3810    -4.6380 ca         1 NBY      -0.102600
     19 C10          3.8340     3.3220    -5.9930 ca         1 NBY      -0.081000
     20 C11          4.2930     4.4530    -6.6370 ca         1 NBY      -0.017500
     21 C12          4.4230     5.6430    -5.9440 ca         1 NBY      -0.431200
     22 C13          4.0940     5.7090    -4.6020 ca         1 NBY      -0.017500
     23 C14          3.6290     4.5870    -3.9470 ca         1 NBY      -0.081000
     24 N3           4.9220     6.8500    -6.6400 no         1 NBY       1.043200
     25 O9           5.0430     7.8980    -6.0310 o          1 NBY      -0.445500
     26 O10          5.2130     6.7950    -7.8220 o          1 NBY      -0.445500
     27 H1           1.7880    -0.8870    -0.5070 h2         1 NBY       0.066700
     28 H2           1.6090     0.9030     1.9420 h1         1 NBY       0.016700
     29 HO2          3.7020     0.4570     2.1600 ho         1 NBY       0.399000
     30 H3           1.7400    -2.1260     1.7030 h1         1 NBY       0.032700
     31 HO3          2.2300    -1.9950     3.7570 ho         1 NBY       0.404000
     32 H4          -0.5210    -0.3060     2.6090 h1         1 NBY       0.019700
     33 HO4         -1.0600    -2.1350     3.5530 ho         1 NBY       0.399000
     34 H5          -0.2430    -2.0410     0.1290 h1         1 NBY       0.037700
     35 H16         -2.4360    -0.1090     0.9710 h1         1 NBY      -0.003800
     36 H26         -2.5510    -1.8700     1.0990 h1         1 NBY      -0.003800
     37 HO6         -3.4460    -1.2670    -0.8650 ho         1 NBY       0.388000
     38 HN1          1.9980     2.0610    -0.1960 hn         1 NBY       0.162500
     39 HN2          2.7830     3.0980    -2.1350 hn         1 NBY       0.168500
     40 H10          3.7320     2.3910    -6.5380 ha         1 NBY       0.125500
     41 H11          4.5520     4.4080    -7.6880 ha         1 NBY       0.136500
     42 H13          4.1970     6.6450    -4.0650 ha         1 NBY       0.136500
     43 H14          3.3710     4.6400    -2.8960 ha         1 NBY       0.125500
@<TRIPOS>BOND
     1     1     2 1   
     2     1     9 1   
     3     2     3 1   
     4     2    12 1   
     5     2    27 1   
     6     3     4 1   
     7     3     5 1   
     8     3    28 1   
     9     4    29 1   
    10     5     6 1   
    11     5     7 1   
    12     5    30 1   
    13     6    31 1   
    14     7     8 1   
    15     7     9 1   
    16     7    32 1   
    17     8    33 1   
    18     9    10 1   
    19     9    34 1   
    20    10    11 1   
    21    10    35 1   
    22    10    36 1   
    23    11    37 1   
    24    12    13 1   
    25    12    38 1   
    26    13    14 2   
    27    13    15 1   
    28    15    16 1   
    29    15    39 1   
    30    16    17 2   
    31    16    18 1   
    32    18    19 ar  
    33    18    23 ar  
    34    19    20 ar  
    35    19    40 1   
    36    20    21 ar  
    37    20    41 1   
    38    21    22 ar  
    39    21    24 1   
    40    22    23 ar  
    41    22    42 1   
    42    23    43 1   
    43    24    25 1   
    44    24    26 1   
@<TRIPOS>SUBSTRUCTURE
     1 NBY         1 TEMP              0 ****  ****    0 ROOT
