@<TRIPOS>MOLECULE
molecule
   14    14     1     0     0
SMALL
bcc


@<TRIPOS>ATOM
      1 C1           0.0000     0.0000     0.0000 ca         1 NBZ      -0.070000
      2 C2           1.3820     0.0000     0.0000 ca         1 NBZ      -0.135000
      3 C3           2.0730     0.0000     1.1970 ca         1 NBZ      -0.087000
      4 C4           1.3820     0.0040     2.3940 ca         1 NBZ      -0.135000
      5 C5           0.0000     0.0080     2.3940 ca         1 NBZ      -0.070000
      6 C6          -0.6910     0.0090     1.1970 ca         1 NBZ      -0.155200
      7 N1          -2.1720     0.0130     1.1970 no         1 NBZ       0.293200
      8 O1          -2.7810     0.0160     2.2520 o          1 NBZ      -0.205000
      9 O2          -2.7810     0.0190     0.1420 o          1 NBZ      -0.205000
     10 H1          -0.5420     0.0000    -0.9380 ha         1 NBZ       0.166000
     11 H2           1.9240    -0.0050    -0.9380 ha         1 NBZ       0.148000
     12 H3           3.1560    -0.0020     1.1970 ha         1 NBZ       0.142000
     13 H4           1.9240     0.0040     3.3320 ha         1 NBZ       0.148000
     14 H5          -0.5420     0.0130     3.3320 ha         1 NBZ       0.166000
@<TRIPOS>BOND
     1     1     2 ar
     2     1     6 ar
     3     1    10 1
     4     2     3 ar
     5     2    11 1
     6     3     4 ar
     7     3    12 1
     8     4     5 ar
     9     4    13 1
    10     5     6 ar
    11     5    14 1
    12     6     7 1
    13     7     8 1
    14     7     9 1
@<TRIPOS>SUBSTRUCTURE
     1 NBZ         1 TEMP              0 ****  ****    0 ROOT
