@<TRIPOS>MOLECULE
molecule
    8     7     1     0     0
SMALL
bcc


@<TRIPOS>ATOM
      1 N            0.0000     0.0000     0.0000 nz         1 NC       -0.797600
      2 C1           1.4370     0.0000     0.0000 c3         1 NC        0.071100
      3 HN          -0.3340     0.0000     0.9440 hn         1 NC        0.461800
      4 H11          1.7980    -0.8850     0.5110 hx         1 NC        0.113700
      5 H12          1.7980     0.8850     0.5110 hx         1 NC        0.113700
      6 H13          1.7980     0.0000    -1.0210 hx         1 NC        0.113700
      7 HN1         -0.3340     0.8170    -0.4720 hn         1 NC        0.461800
      8 HN3         -0.3340    -0.8170    -0.4720 hn         1 NC        0.461800
@<TRIPOS>BOND
     1     1     2 1
     2     1     3 1
     3     2     4 1
     4     2     5 1
     5     2     6 1
     6     7     1 1
     7     8     1 1
@<TRIPOS>SUBSTRUCTURE
     1 NC          1 TEMP              0 ****  ****    0 ROOT
