@<TRIPOS>MOLECULE
NC3
   29    29     1     0     0
SMALL
bcc


@<TRIPOS>ATOM
      1 C1           0.0000     0.0000     0.0000 c3         1 NC3       0.041700
      2 N2          -0.4890    -0.0000    -1.3810 ns         1 NC3      -0.241900
      3 C3          -1.7110    -0.4940    -1.6630 c          1 NC3       0.562100
      4 N4          -2.1610    -0.4940    -2.9340 ns         1 NC3      -0.178900
      5 C5          -3.4880    -1.0300    -3.2410 c3         1 NC3      -0.056000
      6 C6          -3.7480    -0.9140    -4.7200 c          1 NC3       0.972600
      7 O7          -4.9100    -1.3460    -5.2350 o          1 NC3      -0.895800
      8 O8          -2.4070    -0.9400    -0.7720 o          1 NC3      -0.743100
      9 O9          -2.9090    -0.4320    -5.4450 o          1 NC3      -0.895800
     10 C10          1.5290     0.0000     0.0000 c3         1 NC3      -0.043400
     11 C11          2.0400     0.0000     1.4430 c3         1 NC3      -0.018400
     12 C12          1.5310     1.2490     2.1640 c3         1 NC3      -0.027400
     13 C13          0.0000     1.2490     2.1640 c3         1 NC3      -0.018400
     14 C14         -0.5110     1.2490     0.7220 c3         1 NC3      -0.043400
     15 H1          -0.3590    -0.8830     0.5150 h1         1 NC3       0.056700
     16 HN2          0.0910     0.3520    -2.1160 hn         1 NC3       0.164500
     17 HN4         -1.5850    -0.1310    -3.6680 hn         1 NC3       0.190500
     18 H51         -3.5340    -2.0720    -2.9470 h1         1 NC3       0.021200
     19 H52         -4.2390    -0.4690    -2.6980 h1         1 NC3       0.021200
     20 H101         1.8890     0.8860    -0.5090 hc         1 NC3       0.020200
     21 H102         1.8890    -0.8860    -0.5090 hc         1 NC3       0.020200
     22 H111         1.6770    -0.8840     1.9530 hc         1 NC3       0.009950
     23 H112         3.1240     0.0030     1.4410 hc         1 NC3       0.009950
     24 H121         1.8900     2.1330     1.6510 hc         1 NC3       0.006700
     25 H122         1.8910     1.2460     3.1860 hc         1 NC3       0.006700
     26 H131        -0.3590     0.3630     2.6740 hc         1 NC3       0.009950
     27 H132        -0.3590     2.1350     2.6730 hc         1 NC3       0.009950
     28 H141        -0.1480     2.1330     0.2120 hc         1 NC3       0.020200
     29 H142        -1.5940     1.2460     0.7240 hc         1 NC3       0.020200
@<TRIPOS>BOND
     1     1     2 1   
     2     1    10 1   
     3     1    14 1   
     4     1    15 1   
     5     2     3 1   
     6     2    16 1   
     7     3     4 1   
     8     3     8 2   
     9     4     5 1   
    10     4    17 1   
    11     5     6 1   
    12     5    18 1   
    13     5    19 1   
    14     6     7 1   
    15     6     9 1   
    16    10    11 1   
    17    10    20 1   
    18    10    21 1   
    19    11    12 1   
    20    11    22 1   
    21    11    23 1   
    22    12    13 1   
    23    12    24 1   
    24    12    25 1   
    25    13    14 1   
    26    13    26 1   
    27    13    27 1   
    28    14    28 1   
    29    14    29 1   
@<TRIPOS>SUBSTRUCTURE
     1 NC3         1 TEMP              0 ****  ****    0 ROOT
