@<TRIPOS>MOLECULE
molecule
   35    35     1     0     0
SMALL
bcc


@<TRIPOS>ATOM
      1 C1           0.0000     0.0000     0.0000 c3         1 NC4       0.138700
      2 N2          -0.4890     0.0000    -1.3800 ns         1 NC4      -0.610900
      3 C3          -1.7110    -0.4930    -1.6630 c          1 NC4       0.776100
      4 N4          -2.1600    -0.4940    -2.9330 ns         1 NC4      -0.594900
      5 C5          -3.4890    -1.0300    -3.2400 c3         1 NC4       0.115000
      6 C6          -3.7520    -0.9120    -4.7430 c3         1 NC4      -0.083400
      7 C7          -5.1390    -1.4720    -5.0630 c3         1 NC4      -0.180400
      8 C8          -5.3980    -1.3550    -6.5440 c          1 NC4       0.892600
      9 O9          -6.5610    -1.7870    -7.0570 o          1 NC4      -0.854800
     10 O10         -2.4080    -0.9390    -0.7720 o          1 NC4      -0.675100
     11 O11         -4.5590    -0.8740    -7.2670 o          1 NC4      -0.854800
     12 C12          1.5300     0.0000     0.0000 c3         1 NC4      -0.094900
     13 C13          2.0410     0.0000     1.4430 c3         1 NC4      -0.077400
     14 C14          1.5310     1.2490     2.1640 c3         1 NC4      -0.083400
     15 C15          0.0000     1.2490     2.1640 c3         1 NC4      -0.077400
     16 C16         -0.5100     1.2500     0.7220 c3         1 NC4      -0.094900
     17 H1          -0.3590    -0.8830     0.5140 h1         1 NC4       0.079700
     18 HN2          0.0900     0.3550    -2.1160 hn         1 NC4       0.302500
     19 HN4         -1.5770    -0.1480    -3.6700 hn         1 NC4       0.305500
     20 H51         -3.5350    -2.0710    -2.9460 h1         1 NC4       0.043200
     21 H52         -4.2390    -0.4680    -2.6980 h1         1 NC4       0.043200
     22 H61         -3.7060     0.1300    -5.0370 hc         1 NC4       0.048200
     23 H62         -3.0010    -1.4740    -5.2860 hc         1 NC4       0.048200
     24 H71         -5.8890    -0.9110    -4.5190 hc         1 NC4       0.031700
     25 H72         -5.1840    -2.5140    -4.7700 hc         1 NC4       0.031700
     26 H121         1.8900    -0.8860    -0.5090 hc         1 NC4       0.047450
     27 H122         1.8900     0.8860    -0.5090 hc         1 NC4       0.047450
     28 H131         3.1240     0.0030     1.4410 hc         1 NC4       0.040450
     29 H132         1.6780    -0.8840     1.9530 hc         1 NC4       0.040450
     30 H141         1.8900     2.1330     1.6510 hc         1 NC4       0.035700
     31 H142         1.8900     1.2470     3.1860 hc         1 NC4       0.035700
     32 H151        -0.3590     2.1360     2.6730 hc         1 NC4       0.040450
     33 H152        -0.3590     0.3630     2.6730 hc         1 NC4       0.040450
     34 H161        -1.5930     1.2470     0.7240 hc         1 NC4       0.047450
     35 H162        -0.1460     2.1330     0.2120 hc         1 NC4       0.047450
@<TRIPOS>BOND
     1     1     2 1
     2     1    12 1
     3     1    16 1
     4     1    17 1
     5     2     3 1
     6     2    18 1
     7     3     4 1
     8     3    10 2
     9     4     5 1
    10     4    19 1
    11     5     6 1
    12     5    20 1
    13     5    21 1
    14     6     7 1
    15     6    22 1
    16     6    23 1
    17     7     8 1
    18     7    24 1
    19     7    25 1
    20     8     9 1
    21     8    11 1
    22    12    13 1
    23    12    26 1
    24    12    27 1
    25    13    14 1
    26    13    28 1
    27    13    29 1
    28    14    15 1
    29    14    30 1
    30    14    31 1
    31    15    16 1
    32    15    32 1
    33    15    33 1
    34    16    34 1
    35    16    35 1
@<TRIPOS>SUBSTRUCTURE
     1 NC4         1 TEMP              0 ****  ****    0 ROOT
