@<TRIPOS>MOLECULE
molecule
   85    89     1     0     0
SMALL
bcc


@<TRIPOS>ATOM
      1 O39          0.0000     0.0000     0.0000 o          1 NC5      -0.593100
      2 C9           1.2130     0.0000     0.0000 c          1 NC5       0.659100
      3 C10          1.9660     0.0000     1.3060 c3         1 NC5      -0.159900
      4 C13          0.9710    -0.0010     2.4690 c3         1 NC5       0.173300
      5 N16          1.7060    -0.0010     3.7410 n3         1 NC5      -0.731100
      6 C18          0.7860     0.1320     4.8780 c3         1 NC5       0.176000
      7 C20         -0.0890     1.3720     4.6840 c3         1 NC5      -0.105400
      8 C23          0.8020     2.6010     4.5020 c3         1 NC5      -0.091600
      9 C27          1.5920     0.2730     6.1730 c3         1 NC5      -0.073900
     10 C30          2.4810    -0.9600     6.3520 c3         1 NC5      -0.082900
     11 C33          3.3940    -1.1030     5.1320 c3         1 NC5      -0.077900
     12 C36          2.5370    -1.2050     3.8690 c3         1 NC5       0.157800
     13 N7           1.8870    -0.0040    -1.1670 ns         1 NC5      -0.480100
     14 C6           1.1930    -0.1040    -2.3740 ca         1 NC5       0.085100
     15 C40         -0.0530     0.5250    -2.5000 ca         1 NC5      -0.130000
     16 C42         -0.7670     0.4570    -3.6510 ca         1 NC5      -0.092500
     17 C4           1.7490    -0.8080    -3.4090 ca         1 NC5      -0.228800
     18 C3           1.0550    -0.9130    -4.6310 ca         1 NC5       0.460100
     19 N1           1.5720    -1.5920    -5.6500 nb         1 NC5      -0.692000
     20 C44         -0.2510    -0.2580    -4.7520 ca         1 NC5      -0.177300
     21 C45         -0.9600    -0.3480    -5.9520 ca         1 NC5      -0.052000
     22 C2          -0.3850    -1.0730    -6.9970 ca         1 NC5      -0.177300
     23 C47         -1.0400    -1.2090    -8.2390 ca         1 NC5      -0.092500
     24 C49         -0.4540    -1.9220    -9.2330 ca         1 NC5      -0.130000
     25 C51          0.7950    -2.5310    -9.0580 ca         1 NC5       0.085100
     26 C85          1.4810    -2.4360    -7.8750 ca         1 NC5      -0.228800
     27 C87          0.9280    -1.6980    -6.8090 ca         1 NC5       0.460100
     28 N52          1.3550    -3.2540   -10.1130 ns         1 NC5      -0.480100
     29 C54          1.1600    -2.8500   -11.3840 c          1 NC5       0.659100
     30 O84          0.5770    -1.8110   -11.6080 o          1 NC5      -0.593100
     31 C55          1.6670    -3.6910   -12.5280 c3         1 NC5      -0.159900
     32 C58          1.3180    -3.0110   -13.8540 c3         1 NC5       0.173300
     33 N61          1.8120    -3.8310   -14.9690 n3         1 NC5      -0.731100
     34 C63          1.2770    -3.3530   -16.2510 c3         1 NC5       0.176000
     35 C77          1.8290    -1.9570   -16.5450 c3         1 NC5      -0.105400
     36 C80          1.1890    -1.4150   -17.8240 c3         1 NC5      -0.091600
     37 C66          1.6930    -4.3130   -17.3670 c3         1 NC5      -0.073900
     38 C69          3.2220    -4.3870   -17.4270 c3         1 NC5      -0.082900
     39 C72          3.7560    -4.8400   -16.0650 c3         1 NC5      -0.077900
     40 C75          3.2800    -3.8650   -14.9860 c3         1 NC5       0.157800
     41 H10          2.5900    -0.8840     1.3630 hc         1 NC5       0.070450
     42 H10A         2.5880     0.8850     1.3640 hc         1 NC5       0.070450
     43 H13          0.3480     0.8830     2.4120 h1         1 NC5       0.053450
     44 H13A         0.3490    -0.8860     2.4110 h1         1 NC5       0.053450
     45 H18          0.1610    -0.7510     4.9390 h1         1 NC5       0.045700
     46 H20         -0.7200     1.5080     5.5540 hc         1 NC5       0.046700
     47 H20A        -0.7090     1.2420     3.8050 hc         1 NC5       0.046700
     48 H23          1.7880     2.2880     4.1810 hc         1 NC5       0.036533
     49 H23A         0.3680     3.2540     3.7550 hc         1 NC5       0.036533
     50 H23B         0.8810     3.1320     5.4440 hc         1 NC5       0.036533
     51 H27          0.9130     0.3530     7.0130 hc         1 NC5       0.049700
     52 H27A         2.2120     1.1600     6.1160 hc         1 NC5       0.049700
     53 H30          3.0860    -0.8420     7.2430 hc         1 NC5       0.041450
     54 H30A         1.8600    -1.8430     6.4430 hc         1 NC5       0.041450
     55 H33          3.9940    -1.9990     5.2340 hc         1 NC5       0.046950
     56 H33A         4.0390    -0.2350     5.0610 hc         1 NC5       0.046950
     57 H36          1.8990    -2.0780     3.9370 h1         1 NC5       0.032950
     58 H36A         3.1830    -1.2910     3.0030 h1         1 NC5       0.032950
     59 HN7          2.8860     0.0670    -1.1680 hn         1 NC5       0.327500
     60 H40         -0.4540     1.0780    -1.6590 ha         1 NC5       0.163000
     61 H42         -1.7280     0.9520    -3.7250 ha         1 NC5       0.139000
     62 H4           2.7640    -1.1780    -3.3300 ha         1 NC5       0.148000
     63 H45         -2.0150    -0.1030    -5.9780 ha         1 NC5       0.143000
     64 H47         -2.0070    -0.7460    -8.3970 ha         1 NC5       0.139000
     65 H49         -0.9630    -2.0210   -10.1850 ha         1 NC5       0.163000
     66 H85          2.4450    -2.9170    -7.7640 ha         1 NC5       0.148000
     67 HN52         1.9880    -4.0040    -9.9220 hn         1 NC5       0.327500
     68 H55          1.2030    -4.6690   -12.4900 hc         1 NC5       0.070450
     69 H55A         2.7420    -3.7970   -12.4490 hc         1 NC5       0.070450
     70 H58          1.7810    -2.0330   -13.8920 h1         1 NC5       0.053450
     71 H58A         0.2430    -2.9050   -13.9340 h1         1 NC5       0.053450
     72 H63          0.1960    -3.3140   -16.1960 h1         1 NC5       0.045700
     73 H77          1.6000    -1.2960   -15.7190 hc         1 NC5       0.046700
     74 H77A         2.9030    -2.0140   -16.6750 hc         1 NC5       0.046700
     75 H80          0.1650    -1.7620   -17.8910 hc         1 NC5       0.036533
     76 H80A         1.7470    -1.7670   -18.6840 hc         1 NC5       0.036533
     77 H80B         1.2030    -0.3320   -17.8040 hc         1 NC5       0.036533
     78 H66          1.2920    -5.2980   -17.1630 hc         1 NC5       0.049700
     79 H66A         1.3120    -3.9500   -18.3140 hc         1 NC5       0.049700
     80 H69          3.6220    -3.4090   -17.6640 hc         1 NC5       0.041450
     81 H69A         3.5190    -5.1000   -18.1860 hc         1 NC5       0.041450
     82 H72          3.3830    -5.8330   -15.8440 hc         1 NC5       0.046950
     83 H72A         4.8390    -4.8520   -16.0880 hc         1 NC5       0.046950
     84 H75          3.6610    -2.8750   -15.2030 h1         1 NC5       0.032950
     85 H75A         3.6440    -4.1940   -14.0200 h1         1 NC5       0.032950
@<TRIPOS>BOND
     1     2     1 2
     2     3     2 1
     3     2    13 1
     4     4     3 1
     5     3    41 1
     6     3    42 1
     7     5     4 1
     8     4    43 1
     9     4    44 1
    10     6     5 1
    11    12     5 1
    12     9     6 1
    13     6     7 1
    14     6    45 1
    15     8     7 1
    16     7    46 1
    17     7    47 1
    18     8    48 1
    19     8    49 1
    20     8    50 1
    21    10     9 1
    22     9    51 1
    23     9    52 1
    24    10    11 1
    25    10    53 1
    26    10    54 1
    27    11    12 1
    28    11    55 1
    29    11    56 1
    30    12    57 1
    31    12    58 1
    32    13    14 1
    33    13    59 1
    34    14    17 ar
    35    14    15 ar
    36    15    16 ar
    37    15    60 1
    38    16    20 ar
    39    16    61 1
    40    17    18 ar
    41    17    62 1
    42    18    19 ar
    43    18    20 ar
    44    19    27 ar
    45    20    21 ar
    46    21    22 ar
    47    21    63 1
    48    27    22 ar
    49    22    23 ar
    50    23    24 ar
    51    23    64 1
    52    25    24 ar
    53    24    65 1
    54    26    25 ar
    55    25    28 1
    56    27    26 ar
    57    26    66 1
    58    29    28 1
    59    28    67 1
    60    30    29 2
    61    29    31 1
    62    32    31 1
    63    31    68 1
    64    31    69 1
    65    32    33 1
    66    32    70 1
    67    32    71 1
    68    34    33 1
    69    33    40 1
    70    35    34 1
    71    34    37 1
    72    34    72 1
    73    36    35 1
    74    35    73 1
    75    35    74 1
    76    36    75 1
    77    36    76 1
    78    36    77 1
    79    37    38 1
    80    37    78 1
    81    37    79 1
    82    38    39 1
    83    38    80 1
    84    38    81 1
    85    40    39 1
    86    39    82 1
    87    39    83 1
    88    40    84 1
    89    40    85 1
@<TRIPOS>SUBSTRUCTURE
     1 NC5         1 TEMP              0 ****  ****    0 ROOT
