@<TRIPOS>MOLECULE
NC5
   85    89     1     0     0
SMALL
bcc


@<TRIPOS>ATOM
      1 O39          0.0000     0.0000     0.0000 o          1 NC5      -0.632600
      2 C9           1.2130     0.0000     0.0000 c          1 NC5       0.563100
      3 C10          1.9660     0.0000     1.3060 c3         1 NC5      -0.109400
      4 C13          0.9710    -0.0010     2.4690 c3         1 NC5       0.154300
      5 N16          1.7060    -0.0010     3.7410 n3         1 NC5      -0.539600
      6 C18          0.7860     0.1320     4.8780 c3         1 NC5       0.136500
      7 C20         -0.0890     1.3720     4.6840 c3         1 NC5      -0.063400
      8 C23          0.8020     2.6010     4.5020 c3         1 NC5      -0.001600
      9 C27          1.5920     0.2730     6.1730 c3         1 NC5      -0.028400
     10 C30          2.4810    -0.9600     6.3520 c3         1 NC5      -0.030400
     11 C33          3.3940    -1.1030     5.1320 c3         1 NC5      -0.022900
     12 C36          2.5370    -1.2050     3.8690 c3         1 NC5       0.139800
     13 N7           1.8870    -0.0040    -1.1670 ns         1 NC5      -0.040100
     14 C6           1.1930    -0.1040    -2.3740 ca         1 NC5      -0.061400
     15 C40         -0.0530     0.5250    -2.5000 ca         1 NC5      -0.108500
     16 C42         -0.7670     0.4570    -3.6510 ca         1 NC5      -0.061000
     17 C4           1.7490    -0.8080    -3.4090 ca         1 NC5      -0.203800
     18 C3           1.0550    -0.9130    -4.6310 ca         1 NC5       0.412100
     19 N1           1.5720    -1.5920    -5.6500 nb         1 NC5      -0.580000
     20 C44         -0.2510    -0.2580    -4.7520 ca         1 NC5      -0.165800
     21 C45         -0.9600    -0.3480    -5.9520 ca         1 NC5      -0.030000
     22 C2          -0.3850    -1.0730    -6.9970 ca         1 NC5      -0.165800
     23 C47         -1.0400    -1.2090    -8.2390 ca         1 NC5      -0.061000
     24 C49         -0.4540    -1.9220    -9.2330 ca         1 NC5      -0.108500
     25 C51          0.7950    -2.5310    -9.0580 ca         1 NC5      -0.061400
     26 C85          1.4810    -2.4360    -7.8750 ca         1 NC5      -0.203800
     27 C87          0.9280    -1.6980    -6.8090 ca         1 NC5       0.412100
     28 N52          1.3550    -3.2540   -10.1130 ns         1 NC5      -0.040100
     29 C54          1.1600    -2.8500   -11.3840 c          1 NC5       0.563100
     30 O84          0.5770    -1.8110   -11.6080 o          1 NC5      -0.632600
     31 C55          1.6670    -3.6910   -12.5280 c3         1 NC5      -0.109400
     32 C58          1.3180    -3.0110   -13.8540 c3         1 NC5       0.154300
     33 N61          1.8120    -3.8310   -14.9690 n3         1 NC5      -0.539600
     34 C63          1.2770    -3.3530   -16.2510 c3         1 NC5       0.136500
     35 C77          1.8290    -1.9570   -16.5450 c3         1 NC5      -0.063400
     36 C80          1.1890    -1.4150   -17.8240 c3         1 NC5      -0.001600
     37 C66          1.6930    -4.3130   -17.3670 c3         1 NC5      -0.028400
     38 C69          3.2220    -4.3870   -17.4270 c3         1 NC5      -0.030400
     39 C72          3.7560    -4.8400   -16.0650 c3         1 NC5      -0.022900
     40 C75          3.2800    -3.8650   -14.9860 c3         1 NC5       0.139800
     41 H10          2.5900    -0.8840     1.3630 hc         1 NC5       0.038200
     42 H10A         2.5880     0.8850     1.3640 hc         1 NC5       0.038200
     43 H13          0.3480     0.8830     2.4120 h1         1 NC5       0.029950
     44 H13A         0.3490    -0.8860     2.4110 h1         1 NC5       0.029950
     45 H18          0.1610    -0.7510     4.9390 h1         1 NC5       0.024200
     46 H20         -0.7200     1.5080     5.5540 hc         1 NC5       0.025700
     47 H20A        -0.7090     1.2420     3.8050 hc         1 NC5       0.025700
     48 H23          1.7880     2.2880     4.1810 hc         1 NC5       0.006200
     49 H23A         0.3680     3.2540     3.7550 hc         1 NC5       0.006200
     50 H23B         0.8810     3.1320     5.4440 hc         1 NC5       0.006200
     51 H27          0.9130     0.3530     7.0130 hc         1 NC5       0.023700
     52 H27A         2.2120     1.1600     6.1160 hc         1 NC5       0.023700
     53 H30          3.0860    -0.8420     7.2430 hc         1 NC5       0.014950
     54 H30A         1.8600    -1.8430     6.4430 hc         1 NC5       0.014950
     55 H33          3.9940    -1.9990     5.2340 hc         1 NC5       0.017700
     56 H33A         4.0390    -0.2350     5.0610 hc         1 NC5       0.017700
     57 H36          1.8990    -2.0780     3.9370 h1         1 NC5       0.012200
     58 H36A         3.1830    -1.2910     3.0030 h1         1 NC5       0.012200
     59 HN7          2.8860     0.0670    -1.1680 hn         1 NC5       0.170000
     60 H40         -0.4540     1.0780    -1.6590 ha         1 NC5       0.142000
     61 H42         -1.7280     0.9520    -3.7250 ha         1 NC5       0.109000
     62 H4           2.7640    -1.1780    -3.3300 ha         1 NC5       0.120500
     63 H45         -2.0150    -0.1030    -5.9780 ha         1 NC5       0.114000
     64 H47         -2.0070    -0.7460    -8.3970 ha         1 NC5       0.109000
     65 H49         -0.9630    -2.0210   -10.1850 ha         1 NC5       0.142000
     66 H85          2.4450    -2.9170    -7.7640 ha         1 NC5       0.120500
     67 HN52         1.9880    -4.0040    -9.9220 hn         1 NC5       0.170000
     68 H55          1.2030    -4.6690   -12.4900 hc         1 NC5       0.038200
     69 H55A         2.7420    -3.7970   -12.4490 hc         1 NC5       0.038200
     70 H58          1.7810    -2.0330   -13.8920 h1         1 NC5       0.029950
     71 H58A         0.2430    -2.9050   -13.9340 h1         1 NC5       0.029950
     72 H63          0.1960    -3.3140   -16.1960 h1         1 NC5       0.024200
     73 H77          1.6000    -1.2960   -15.7190 hc         1 NC5       0.025700
     74 H77A         2.9030    -2.0140   -16.6750 hc         1 NC5       0.025700
     75 H80          0.1650    -1.7620   -17.8910 hc         1 NC5       0.006200
     76 H80A         1.7470    -1.7670   -18.6840 hc         1 NC5       0.006200
     77 H80B         1.2030    -0.3320   -17.8040 hc         1 NC5       0.006200
     78 H66          1.2920    -5.2980   -17.1630 hc         1 NC5       0.023700
     79 H66A         1.3120    -3.9500   -18.3140 hc         1 NC5       0.023700
     80 H69          3.6220    -3.4090   -17.6640 hc         1 NC5       0.014950
     81 H69A         3.5190    -5.1000   -18.1860 hc         1 NC5       0.014950
     82 H72          3.3830    -5.8330   -15.8440 hc         1 NC5       0.017700
     83 H72A         4.8390    -4.8520   -16.0880 hc         1 NC5       0.017700
     84 H75          3.6610    -2.8750   -15.2030 h1         1 NC5       0.012200
     85 H75A         3.6440    -4.1940   -14.0200 h1         1 NC5       0.012200
@<TRIPOS>BOND
     1     1     2 2   
     2     2     3 1   
     3     2    13 1   
     4     3     4 1   
     5     3    41 1   
     6     3    42 1   
     7     4     5 1   
     8     4    43 1   
     9     4    44 1   
    10     5     6 1   
    11     5    12 1   
    12     6     7 1   
    13     6     9 1   
    14     6    45 1   
    15     7     8 1   
    16     7    46 1   
    17     7    47 1   
    18     8    48 1   
    19     8    49 1   
    20     8    50 1   
    21     9    10 1   
    22     9    51 1   
    23     9    52 1   
    24    10    11 1   
    25    10    53 1   
    26    10    54 1   
    27    11    12 1   
    28    11    55 1   
    29    11    56 1   
    30    12    57 1   
    31    12    58 1   
    32    13    14 1   
    33    13    59 1   
    34    14    15 ar  
    35    14    17 ar  
    36    15    16 ar  
    37    15    60 1   
    38    16    20 ar  
    39    16    61 1   
    40    17    18 ar  
    41    17    62 1   
    42    18    19 ar  
    43    18    20 ar  
    44    19    27 ar  
    45    20    21 ar  
    46    21    22 ar  
    47    21    63 1   
    48    22    23 ar  
    49    22    27 ar  
    50    23    24 ar  
    51    23    64 1   
    52    24    25 ar  
    53    24    65 1   
    54    25    26 ar  
    55    25    28 1   
    56    26    27 ar  
    57    26    66 1   
    58    28    29 1   
    59    28    67 1   
    60    29    30 2   
    61    29    31 1   
    62    31    32 1   
    63    31    68 1   
    64    31    69 1   
    65    32    33 1   
    66    32    70 1   
    67    32    71 1   
    68    33    34 1   
    69    33    40 1   
    70    34    35 1   
    71    34    37 1   
    72    34    72 1   
    73    35    36 1   
    74    35    73 1   
    75    35    74 1   
    76    36    75 1   
    77    36    76 1   
    78    36    77 1   
    79    37    38 1   
    80    37    78 1   
    81    37    79 1   
    82    38    39 1   
    83    38    80 1   
    84    38    81 1   
    85    39    40 1   
    86    39    82 1   
    87    39    83 1   
    88    40    84 1   
    89    40    85 1   
@<TRIPOS>SUBSTRUCTURE
     1 NC5         1 TEMP              0 ****  ****    0 ROOT
