@<TRIPOS>MOLECULE
molecule
   41    41     1     0     0
SMALL
bcc


@<TRIPOS>ATOM
      1 C1           0.0000     0.0000     0.0000 c3         1 NC6       0.137700
      2 N2          -0.4890    -0.0010    -1.3810 ns         1 NC6      -0.607900
      3 C3          -1.7110    -0.4930    -1.6620 c          1 NC6       0.779100
      4 N4          -2.1610    -0.4940    -2.9340 ns         1 NC6      -0.601900
      5 C5          -3.4890    -1.0310    -3.2410 c3         1 NC6       0.124000
      6 C6          -3.7520    -0.9120    -4.7430 c3         1 NC6      -0.101400
      7 C7          -5.1390    -1.4730    -5.0630 c3         1 NC6      -0.084400
      8 C8          -5.4020    -1.3540    -6.5660 c3         1 NC6      -0.063400
      9 C9          -6.7900    -1.9150    -6.8860 c3         1 NC6      -0.182400
     10 O10         -2.4080    -0.9390    -0.7710 o          1 NC6      -0.668100
     11 C11         -7.0490    -1.7980    -8.3660 c          1 NC6       0.891600
     12 O12         -8.2110    -2.2290    -8.8800 o          1 NC6      -0.857300
     13 O13         -6.2090    -1.3180    -9.0910 o          1 NC6      -0.857300
     14 C14          1.5300     0.0000     0.0000 c3         1 NC6      -0.094900
     15 C15          2.0410     0.0000     1.4420 c3         1 NC6      -0.076900
     16 C16          1.5310     1.2490     2.1640 c3         1 NC6      -0.083400
     17 C17          0.0010     1.2490     2.1640 c3         1 NC6      -0.076900
     18 C18         -0.5090     1.2490     0.7210 c3         1 NC6      -0.094900
     19 H1          -0.3590    -0.8830     0.5150 h1         1 NC6       0.080700
     20 HN2          0.0960     0.3380    -2.1190 hn         1 NC6       0.303500
     21 HN4         -1.5850    -0.1330    -3.6680 hn         1 NC6       0.304500
     22 H51         -4.2390    -0.4700    -2.6970 h1         1 NC6       0.049700
     23 H52         -3.5330    -2.0720    -2.9470 h1         1 NC6       0.049700
     24 H61         -3.0010    -1.4730    -5.2870 hc         1 NC6       0.041700
     25 H62         -3.7070     0.1300    -5.0370 hc         1 NC6       0.041700
     26 H71         -5.8900    -0.9110    -4.5200 hc         1 NC6       0.034700
     27 H72         -5.1840    -2.5140    -4.7700 hc         1 NC6       0.034700
     28 H81         -4.6520    -1.9150    -7.1090 hc         1 NC6       0.045700
     29 H82         -5.3570    -0.3120    -6.8590 hc         1 NC6       0.045700
     30 H91         -6.8350    -2.9560    -6.5920 hc         1 NC6       0.028200
     31 H92         -7.5400    -1.3530    -6.3430 hc         1 NC6       0.028200
     32 H141         1.8890    -0.8860    -0.5090 hc         1 NC6       0.047700
     33 H142         1.8900     0.8860    -0.5090 hc         1 NC6       0.047700
     34 H151         3.1240     0.0020     1.4400 hc         1 NC6       0.041950
     35 H152         1.6770    -0.8840     1.9530 hc         1 NC6       0.041950
     36 H161         1.8910     2.1330     1.6510 hc         1 NC6       0.037700
     37 H162         1.8920     1.2470     3.1850 hc         1 NC6       0.037700
     38 H171        -0.3590     0.3630     2.6730 hc         1 NC6       0.041950
     39 H172        -0.3590     2.1350     2.6730 hc         1 NC6       0.041950
     40 H181        -1.5930     1.2470     0.7230 hc         1 NC6       0.047700
     41 H182        -0.1450     2.1330     0.2110 hc         1 NC6       0.047700
@<TRIPOS>BOND
     1     1     2 1
     2     1    14 1
     3     1    18 1
     4     1    19 1
     5     2     3 1
     6     2    20 1
     7     3     4 1
     8     3    10 2
     9     4     5 1
    10     4    21 1
    11     5     6 1
    12     5    22 1
    13     5    23 1
    14     6     7 1
    15     6    24 1
    16     6    25 1
    17     7     8 1
    18     7    26 1
    19     7    27 1
    20     8     9 1
    21     8    28 1
    22     8    29 1
    23     9    11 1
    24     9    30 1
    25     9    31 1
    26    11    12 1
    27    11    13 1
    28    14    15 1
    29    14    32 1
    30    14    33 1
    31    15    16 1
    32    15    34 1
    33    15    35 1
    34    16    17 1
    35    16    36 1
    36    16    37 1
    37    17    18 1
    38    17    38 1
    39    17    39 1
    40    18    40 1
    41    18    41 1
@<TRIPOS>SUBSTRUCTURE
     1 NC6         1 TEMP              0 ****  ****    0 ROOT
