@<TRIPOS>MOLECULE
NC8
   72    75     1     0     0
SMALL
bcc


@<TRIPOS>ATOM
      1 C1           0.0000     0.0000     0.0000 c3         1 NC8       0.027000
      2 N1           1.4680     0.0000     0.0000 ny         1 NC8       0.051000
      3 O1           0.4640     1.8710     5.1210 o          1 NC8      -0.633100
      4 Br1         -4.2960     7.0440    -5.5120 br         1 NC8      -0.090100
      5 C2           1.9920     0.0000     1.3590 c3         1 NC8      -0.040200
      6 N2           2.3470     2.5210     4.1440 n          1 NC8      -0.171800
      7 O2          -1.4220     3.9110    -0.0650 os         1 NC8      -0.430900
      8 C3           1.7400     1.2860     2.1220 c3         1 NC8      -0.071700
      9 N3           7.7270     2.8920     7.4240 nv         1 NC8      -0.562200
     10 O3          -1.8760     5.9180     0.7700 o          1 NC8      -0.569000
     11 C4           2.4880     1.2350     3.4560 c3         1 NC8       0.064000
     12 N4          -3.6850     4.1230     8.6090 nv         1 NC8      -0.435200
     13 C5           3.3260     3.5870     3.9150 c3         1 NC8       0.108300
     14 C6           4.4950     3.4020     4.8480 ca         1 NC8      -0.150300
     15 C7           1.3140     2.7240     4.9880 c          1 NC8       0.595100
     16 C8          -0.0830     4.0460     6.5220 ca         1 NC8      -0.162300
     17 C9           0.2430     1.4710     2.3890 c3         1 NC8      -0.039200
     18 C10         -0.3800     2.1130     1.1660 c2         1 NC8      -0.061400
     19 C11         -0.8720     3.5360     1.2250 c3         1 NC8       0.271600
     20 C12         -1.9090     5.1630    -0.1810 c          1 NC8       0.725700
     21 C13         -2.4830     5.6150    -1.4640 ca         1 NC8      -0.157600
     22 C14         -0.4880     1.4320     0.0680 c2         1 NC8      -0.251200
     23 C15         -2.9880     6.9110    -1.5870 ca         1 NC8      -0.038500
     24 C16         -3.5240     7.3270    -2.7880 ca         1 NC8      -0.093500
     25 C17         -3.5600     6.4630    -3.8700 ca         1 NC8       0.061100
     26 C18         -3.0610     5.1780    -3.7540 ca         1 NC8      -0.093500
     27 C19         -2.5180     4.7510    -2.5600 ca         1 NC8      -0.038500
     28 C20          5.5220     2.5420     4.5050 ca         1 NC8      -0.088000
     29 C21          6.5950     2.3700     5.3570 ca         1 NC8      -0.104000
     30 C22          6.6430     3.0640     6.5600 ca         1 NC8       0.057600
     31 C23          5.6100     3.9280     6.9010 ca         1 NC8      -0.104000
     32 C24          4.5420     4.0990     6.0420 ca         1 NC8      -0.088000
     33 C25         -1.2120     4.5810     5.9300 ca         1 NC8      -0.031000
     34 C26         -2.4090     4.6080     6.6200 ca         1 NC8      -0.185000
     35 C27         -2.4770     4.0970     7.9100 ca         1 NC8       0.066600
     36 C28         -1.3420     3.5590     8.5010 ca         1 NC8      -0.185000
     37 C29         -0.1480     3.5350     7.8050 ca         1 NC8      -0.031000
     38 C30          1.2190     4.0120     5.7640 c3         1 NC8      -0.036100
     39 H11         -0.3620    -0.5470     0.8620 hx         1 NC8       0.082200
     40 H21         -0.3620    -0.4630    -0.9100 hx         1 NC8       0.082200
     41 H1N1         1.7950    -0.8170    -0.4770 hn         1 NC8       0.238300
     42 H2N1         1.7950     0.8170    -0.4770 hn         1 NC8       0.238300
     43 H12          3.0610    -0.1670     1.3140 hx         1 NC8       0.078200
     44 H22          1.5330    -0.8170     1.9040 hx         1 NC8       0.078200
     45 H3           2.1020     2.1230     1.5370 hc         1 NC8       0.044700
     46 H1N3         8.5310     3.4820     7.3410 hn         1 NC8       0.281800
     47 H2N3         7.6990     2.1800     8.1260 hn         1 NC8       0.281800
     48 H14          2.0730     0.4480     4.0730 h1         1 NC8       0.045700
     49 H24          3.5370     1.0370     3.2740 h1         1 NC8       0.045700
     50 H1N4        -4.5030     4.5100     8.1810 hn         1 NC8       0.268800
     51 H2N4        -3.7330     3.7540     9.5380 hn         1 NC8       0.268800
     52 H15          2.8630     4.5480     4.1010 h1         1 NC8       0.030700
     53 H25          3.6720     3.5450     2.8890 h1         1 NC8       0.030700
     54 H19         -0.2160     0.5070     2.5680 hc         1 NC8       0.078700
     55 H29          0.1030     2.1150     3.2490 hc         1 NC8       0.078700
     56 H111        -0.0470     4.1940     1.4720 h1         1 NC8       0.038700
     57 H211        -1.6410     3.6210     1.9840 h1         1 NC8       0.038700
     58 H14A        -0.9350     1.8900    -0.8070 ha         1 NC8       0.162000
     59 H15A        -2.9600     7.5880    -0.7420 ha         1 NC8       0.118500
     60 H16         -3.9160     8.3320    -2.8860 ha         1 NC8       0.126000
     61 H18         -3.0890     4.5090    -4.6050 ha         1 NC8       0.126000
     62 H19A        -2.1280     3.7440    -2.4710 ha         1 NC8       0.118500
     63 H20          5.4840     2.0010     3.5670 ha         1 NC8       0.101500
     64 H21A         7.3990     1.6960     5.0880 ha         1 NC8       0.116500
     65 H23          5.6470     4.4740     7.8360 ha         1 NC8       0.116500
     66 H24A         3.7360     4.7730     6.3070 ha         1 NC8       0.101500
     67 H25A        -1.1580     4.9800     4.9240 ha         1 NC8       0.095500
     68 H26         -3.2930     5.0270     6.1550 ha         1 NC8       0.112000
     69 H28         -1.3910     3.1590     9.5060 ha         1 NC8       0.112000
     70 H29A         0.7380     3.1160     8.2670 ha         1 NC8       0.095500
     71 H130         1.2600     4.8510     5.0800 hc         1 NC8       0.042200
     72 H230         2.0450     4.0750     6.4630 hc         1 NC8       0.042200
@<TRIPOS>BOND
     1     1     2 1   
     2     1    22 1   
     3     1    39 1   
     4     1    40 1   
     5     2     5 1   
     6     2    41 1   
     7     2    42 1   
     8     3    15 2   
     9     4    25 1   
    10     5     8 1   
    11     5    43 1   
    12     5    44 1   
    13     6    11 1   
    14     6    13 1   
    15     6    15 1   
    16     7    19 1   
    17     7    20 1   
    18     8    11 1   
    19     8    17 1   
    20     8    45 1   
    21     9    30 1   
    22     9    46 1   
    23     9    47 1   
    24    10    20 2   
    25    11    48 1   
    26    11    49 1   
    27    12    35 1   
    28    12    50 1   
    29    12    51 1   
    30    13    14 1   
    31    13    52 1   
    32    13    53 1   
    33    14    28 ar  
    34    14    32 ar  
    35    15    38 1   
    36    16    33 ar  
    37    16    37 ar  
    38    16    38 1   
    39    17    18 1   
    40    17    54 1   
    41    17    55 1   
    42    18    19 1   
    43    18    22 2   
    44    19    56 1   
    45    19    57 1   
    46    20    21 1   
    47    21    23 ar  
    48    21    27 ar  
    49    22    58 1   
    50    23    24 ar  
    51    23    59 1   
    52    24    25 ar  
    53    24    60 1   
    54    25    26 ar  
    55    26    27 ar  
    56    26    61 1   
    57    27    62 1   
    58    28    29 ar  
    59    28    63 1   
    60    29    30 ar  
    61    29    64 1   
    62    30    31 ar  
    63    31    32 ar  
    64    31    65 1   
    65    32    66 1   
    66    33    34 ar  
    67    33    67 1   
    68    34    35 ar  
    69    34    68 1   
    70    35    36 ar  
    71    36    37 ar  
    72    36    69 1   
    73    37    70 1   
    74    38    71 1   
    75    38    72 1   
@<TRIPOS>SUBSTRUCTURE
     1 NC8         1 TEMP              0 ****  ****    0 ROOT
