@<TRIPOS>MOLECULE
molecule
   60    62     1     0     0
SMALL
bcc


@<TRIPOS>ATOM
      1 C1           0.0000     0.0000     0.0000 c3         1 NC9       0.142000
      2 N1           1.4680     0.0000     0.0000 ny         1 NC9      -0.725000
      3 O1           3.9840     3.4140     2.9160 o          1 NC9      -0.596100
      4 C2           1.9930     0.0000     1.3600 c3         1 NC9       0.097800
      5 O2          -1.4140     3.9060    -0.0420 oh         1 NC9      -0.613800
      6 C3           1.7400     1.2860     2.1230 c3         1 NC9      -0.112700
      7 N3           3.2690     0.8850    10.1650 nv         1 NC9      -0.973200
      8 C4           2.4880     1.2350     3.4560 c3         1 NC9       0.125000
      9 N4           6.6340     8.6160     2.2460 nv         1 NC9      -0.914200
     10 C5           1.3270     2.7140     5.1610 c3         1 NC9       0.147300
     11 C6           1.8430     2.2280     6.4900 ca         1 NC9      -0.151300
     12 C7           3.1890     3.5400     3.8240 c          1 NC9       0.661100
     13 C8           4.0620     5.8360     3.9760 ca         1 NC9      -0.148300
     14 C9           0.2440     1.4710     2.3900 c3         1 NC9      -0.071200
     15 C10         -0.3800     2.1130     1.1670 c2         1 NC9      -0.057400
     16 C11         -0.8730     3.5350     1.2270 c3         1 NC9       0.175600
     17 C14         -0.4880     1.4320     0.0680 c2         1 NC9      -0.242200
     18 C20          2.4030     3.1240     7.3830 ca         1 NC9      -0.104000
     19 C21          2.8770     2.6820     8.6020 ca         1 NC9      -0.152000
     20 C22          2.7910     1.3360     8.9330 ca         1 NC9       0.195600
     21 C23          2.2270     0.4380     8.0340 ca         1 NC9      -0.152000
     22 C24          1.7500     0.8890     6.8190 ca         1 NC9      -0.104000
     23 C25          3.5980     6.6810     2.9850 ca         1 NC9      -0.061500
     24 C26          4.4480     7.6050     2.4080 ca         1 NC9      -0.206500
     25 C27          5.7710     7.6840     2.8270 ca         1 NC9       0.218600
     26 C28          6.2330     6.8330     3.8230 ca         1 NC9      -0.206500
     27 C29          5.3760     5.9170     4.3980 ca         1 NC9      -0.061500
     28 C30          3.1320     4.8300     4.6020 c3         1 NC9      -0.094100
     29 H11         -0.3620    -0.4630    -0.9100 hx         1 NC9       0.105200
     30 H21         -0.3620    -0.5470     0.8620 hx         1 NC9       0.105200
     31 H1N1         1.7950    -0.8170    -0.4770 hn         1 NC9       0.452800
     32 H2N1         1.7950     0.8170    -0.4770 hn         1 NC9       0.452800
     33 H12          3.0620    -0.1670     1.3140 hx         1 NC9       0.100200
     34 H22          1.5340    -0.8170     1.9040 hx         1 NC9       0.100200
     35 HO2         -1.8820     4.7200     0.0420 ho         1 NC9       0.430000
     36 H3           2.1020     2.1230     1.5370 hc         1 NC9       0.097700
     37 H1N3         4.0500     0.2610    10.2000 hn         1 NC9       0.436800
     38 H2N3         2.8330     1.1900    11.0120 hn         1 NC9       0.436800
     39 H14          3.5360     1.0260     3.2750 h1         1 NC9       0.070200
     40 H24          2.0660     0.4550     4.0780 h1         1 NC9       0.070200
     41 H1N4         7.5880     8.6680     2.5430 hn         1 NC9       0.433800
     42 H2N4         6.2950     9.2390     1.5400 hn         1 NC9       0.433800
     43 H15          0.4430     2.1500     4.8890 h1         1 NC9       0.057700
     44 H25          1.0770     3.7650     5.2330 h1         1 NC9       0.057700
     45 H19          0.1040     2.1140     3.2500 hc         1 NC9       0.077700
     46 H29         -0.2160     0.5060     2.5690 hc         1 NC9       0.077700
     47 H111        -1.6420     3.6190     1.9860 h1         1 NC9       0.055200
     48 H211        -0.0490     4.1930     1.4750 h1         1 NC9       0.055200
     49 H14A        -0.9430     1.8870    -0.8040 ha         1 NC9       0.193000
     50 H20          2.4700     4.1740     7.1240 ha         1 NC9       0.123500
     51 H21A         3.3150     3.3850     9.3000 ha         1 NC9       0.144500
     52 H23          2.1530    -0.6120     8.2900 ha         1 NC9       0.144500
     53 H24A         1.3100     0.1890     6.1180 ha         1 NC9       0.123500
     54 H25A         2.5670     6.6170     2.6580 ha         1 NC9       0.123000
     55 H26          4.0840     8.2670     1.6310 ha         1 NC9       0.134000
     56 H28          7.2630     6.8960     4.1540 ha         1 NC9       0.134000
     57 H29A         5.7370     5.2530     5.1750 ha         1 NC9       0.123000
     58 H130         3.4330     4.6480     5.6260 hc         1 NC9       0.069200
     59 H230         2.1200     5.2160     4.5870 hc         1 NC9       0.069200
     60 N2           2.3590     2.5260     4.1380 n          1 NC9      -0.498800
@<TRIPOS>BOND
     1     1     2 1
     2     1    17 1
     3     2     4 1
     4    17    15 2
     5     4     6 1
     6    26    27 ar
     7    26    25 ar
     8     9    25 1
     9     3    12 2
    10    27    13 ar
    11    25    24 ar
    12    14    15 1
    13    14     6 1
    14    15    16 1
    15     5    16 1
    16     6     8 1
    17    12    28 1
    18    12    60 1
    19     8    60 1
    20    13    28 1
    21    13    23 ar
    22    24    23 ar
    23    60    10 1
    24    10    11 1
    25    22    11 ar
    26    22    21 ar
    27    11    18 ar
    28    21    20 ar
    29    18    19 ar
    30    20    19 ar
    31    20     7 1
    32     1    29 1
    33     1    30 1
    34     2    31 1
    35     2    32 1
    36     4    33 1
    37     4    34 1
    38     5    35 1
    39     6    36 1
    40     7    37 1
    41     7    38 1
    42     8    39 1
    43     8    40 1
    44     9    41 1
    45     9    42 1
    46    10    43 1
    47    10    44 1
    48    14    45 1
    49    14    46 1
    50    16    47 1
    51    16    48 1
    52    17    49 1
    53    18    50 1
    54    19    51 1
    55    21    52 1
    56    22    53 1
    57    23    54 1
    58    24    55 1
    59    26    56 1
    60    27    57 1
    61    28    58 1
    62    28    59 1
@<TRIPOS>SUBSTRUCTURE
     1 NC9         1 TEMP              0 ****  ****    0 ROOT
