@<TRIPOS>MOLECULE
NCA
   16    16     1     0     0
SMALL
bcc


@<TRIPOS>ATOM
      1 N1           0.0000     0.0000     0.0000 nb         1 NCA      -0.545000
      2 C2           1.3160     0.0000     0.0000 ca         1 NCA       0.441200
      3 C3           2.0250     0.0000     1.2000 ca         1 NCA      -0.370900
      4 C4           1.3150     0.0090     2.4050 ca         1 NCA       0.050000
      5 C5          -0.0690     0.0140     2.3510 ca         1 NCA      -0.207300
      6 C6          -0.6970     0.0100     1.1200 ca         1 NCA       0.494200
      7 C7           3.5030    -0.0060     1.2000 c          1 NCA       0.365700
      8 O7           4.1110    -0.0020     2.2520 o          1 NCA      -0.423100
      9 N7           4.1770    -0.0160     0.0340 nz         1 NCA       0.200600
     10 H2           1.8530    -0.0080    -0.9410 h4         1 NCA      -0.044900
     11 H4           1.8330     0.0110     3.3570 ha         1 NCA       0.140000
     12 H5          -0.6520     0.0220     3.2630 ha         1 NCA       0.145000
     13 H6          -1.7790     0.0120     1.0740 h4         1 NCA       0.006100
     14 HN71         3.9320    -0.8340    -0.4870 hn         1 NCA       0.248800
     15 HN72         3.9400     0.8000    -0.4960 hn         1 NCA       0.248800
     16 H73          5.1610    -0.0200     0.2170 hn         1 NCA       0.248800
@<TRIPOS>BOND
     1     1     2 ar  
     2     1     6 ar  
     3     2     3 ar  
     4     2    10 1   
     5     3     4 ar  
     6     3     7 1   
     7     4     5 ar  
     8     4    11 1   
     9     5     6 ar  
    10     5    12 1   
    11     6    13 1   
    12     7     8 2   
    13     7     9 1   
    14     9    14 1   
    15     9    15 1   
    16     9    16 1   
@<TRIPOS>SUBSTRUCTURE
     1 NCA         1 TEMP              0 ****  ****    0 ROOT
