@<TRIPOS>MOLECULE
NCD
   18    17     1     0     0
SMALL
bcc


@<TRIPOS>ATOM
      1 C6          1.1700    0.0600    0.0530 c3        1 NCD     -0.030300
      2 C61        -0.3150   -0.3230   -0.2690 c         1 NCD      0.922600
      3 O61        -0.8660   -1.2740    0.3560 o         1 NCD     -0.862300
      4 O62        -0.8910    0.3310   -1.1870 o         1 NCD     -0.862300
      5 N1          1.3380    0.3120    1.4810 n         1 NCD     -0.451900
      6 C2          2.3110    1.2660    1.8530 c         1 NCD      0.718100
      7 O2          2.3400    2.4280    1.3660 o         1 NCD     -0.692100
      8 N3          3.1880    0.9890    2.9460 n         1 NCD     -0.637000
      9 C5          2.0590   -1.0750   -0.4790 c3        1 NCD     -0.202400
     10 C4          3.4990   -1.1120    0.0290 c         1 NCD      0.901600
     11 O4          3.7290   -1.2840    1.2720 o         1 NCD     -0.888800
     12 O5          4.4500   -1.0310   -0.8060 o         1 NCD     -0.888800
     13 H61         1.4040    1.0130   -0.5020 h1        1 NCD      0.063700
     14 H11         1.4290   -0.5620    1.9670 hn        1 NCD      0.284500
     15 H31         3.5270    0.0430    2.9330 hn        1 NCD      0.273000
     16 H32         3.9370    1.6460    2.9720 hn        1 NCD      0.273000
     17 H51         2.0690   -0.9970   -1.5950 hc        1 NCD      0.040200
     18 H52         1.5840   -2.0520   -0.2000 hc        1 NCD      0.040200
@<TRIPOS>BOND
     1    1    2 1   
     2    1    5 1   
     3    1    9 1   
     4    1   13 1   
     5    2    3 1   
     6    2    4 1   
     7    5    6 1   
     8    5   14 1   
     9    6    7 2   
    10    6    8 1   
    11    8   15 1   
    12    8   16 1   
    13    9   10 1   
    14    9   17 1   
    15    9   18 1   
    16   10   11 1   
    17   10   12 1   
@<TRIPOS>SUBSTRUCTURE
     1 NCD         1 TEMP              0 ****  ****    0 ROOT
