@<TRIPOS>MOLECULE
NCE
   69    73     1     0     0
SMALL
bcc


@<TRIPOS>ATOM
      1 C75          0.0000     0.0000     0.0000 c3         1 NCE       0.109550
      2 C72          1.5310     0.0000     0.0000 c3         1 NCE       0.214900
      3 O32          2.0020     0.0000     1.3500 os         1 NCE      -0.411600
      4 C66          1.5490     1.1180     2.1190 c3         1 NCE       0.214900
      5 C63          0.0180     1.1300     2.1390 c3         1 NCE       0.109550
      6 N61         -0.4850     1.1620     0.7580 n3         1 NCE      -0.545600
      7 C58         -1.9520     1.2310     0.7340 c3         1 NCE       0.167800
      8 C55         -2.4100     2.5720     1.3110 c3         1 NCE      -0.108900
      9 C54         -3.9150     2.6430     1.2870 c          1 NCE       0.562600
     10 O84         -4.5590     1.7120     0.8500 o          1 NCE      -0.630600
     11 N52         -4.5460     3.7400     1.7500 ns         1 NCE      -0.038600
     12 C51         -5.9320     3.8510     1.6310 ca         1 NCE      -0.060900
     13 C85         -6.6380     4.5000     2.6090 ca         1 NCE      -0.203300
     14 C49         -6.5680     3.3000     0.5110 ca         1 NCE      -0.108000
     15 C47         -7.9120     3.3820     0.3480 ca         1 NCE      -0.059500
     16 C2          -8.6960     4.0340     1.3230 ca         1 NCE      -0.165800
     17 C45        -10.0820     4.1360     1.1880 ca         1 NCE      -0.029000
     18 C87         -8.0370     4.6170     2.4960 ca         1 NCE       0.412600
     19 N1          -8.7450     5.2420     3.4320 nb         1 NCE      -0.580000
     20 C3         -10.0670     5.3580     3.3390 ca         1 NCE       0.412600
     21 C4         -10.8030     6.0220     4.3390 ca         1 NCE      -0.203300
     22 C44        -10.7900     4.7940     2.1950 ca         1 NCE      -0.165800
     23 C42        -12.1920     4.9370     2.1300 ca         1 NCE      -0.059500
     24 C40        -12.8490     5.5820     3.1250 ca         1 NCE      -0.108000
     25 C6         -12.1640     6.1280     4.2190 ca         1 NCE      -0.060900
     26 N7         -12.8870     6.7880     5.2150 ns         1 NCE      -0.038600
     27 C9         -13.9870     7.4970     4.8920 c          1 NCE       0.562600
     28 O39        -14.2970     7.6380     3.7290 o          1 NCE      -0.630600
     29 C10        -14.8320     8.1130     5.9780 c3         1 NCE      -0.108900
     30 C13        -16.0110     8.8570     5.3460 c3         1 NCE       0.167800
     31 N16        -16.8340     9.4570     6.4030 n3         1 NCE      -0.545600
     32 C36        -17.8350    10.3730     5.8360 c3         1 NCE       0.109550
     33 C33        -18.6290    11.0200     6.9740 c3         1 NCE       0.214900
     34 O12        -19.2240     9.9970     7.7750 os         1 NCE      -0.411600
     35 C27        -18.2780     9.0880     8.3450 c3         1 NCE       0.214900
     36 C18        -17.4810     8.4210     7.2210 c3         1 NCE       0.109550
     37 H75         -0.3600    -0.9100     0.4650 h1         1 NCE       0.018325
     38 H75A        -0.3600     0.0590    -1.0200 h1         1 NCE       0.018325
     39 H72          1.8910    -0.8860    -0.5080 h1         1 NCE       0.012075
     40 H72A         1.8910     0.8860    -0.5080 h1         1 NCE       0.012075
     41 H66          1.9220     1.0350     3.1320 h1         1 NCE       0.012075
     42 H66A         1.9100     2.0350     1.6690 h1         1 NCE       0.012075
     43 H63         -0.3430     0.2360     2.6340 h1         1 NCE       0.018325
     44 H63A        -0.3290     2.0080     2.6700 h1         1 NCE       0.018325
     45 H58         -2.3610     0.4230     1.3290 h1         1 NCE       0.025950
     46 H58A        -2.3020     1.1400    -0.2870 h1         1 NCE       0.025950
     47 H55         -2.0000     3.3790     0.7160 hc         1 NCE       0.037700
     48 H55A        -2.0600     2.6630     2.3330 hc         1 NCE       0.037700
     49 HN52        -4.0170     4.4860     2.1570 hn         1 NCE       0.170500
     50 H85         -6.1130     5.0210     3.4010 ha         1 NCE       0.121000
     51 H49         -5.9730     2.8000    -0.2440 ha         1 NCE       0.138500
     52 H47         -8.3820     2.9480    -0.5270 ha         1 NCE       0.109000
     53 H45        -10.6060     3.5010     0.4840 ha         1 NCE       0.114000
     54 H4         -10.2960     6.4530     5.1940 ha         1 NCE       0.121000
     55 H42        -12.7430     4.5230     1.2940 ha         1 NCE       0.109000
     56 H40        -13.9250     5.6880     3.0680 ha         1 NCE       0.138500
     57 HN7        -12.5280     6.8240     6.1490 hn         1 NCE       0.170500
     58 H10        -15.2050     7.3340     6.6310 hc         1 NCE       0.037700
     59 H10A       -14.2320     8.8090     6.5520 hc         1 NCE       0.037700
     60 H13        -16.6110     8.1610     4.7730 h1         1 NCE       0.025950
     61 H13A       -15.6380     9.6360     4.6920 h1         1 NCE       0.025950
     62 H36        -18.5090     9.8180     5.1960 h1         1 NCE       0.018325
     63 H36A       -17.3340    11.1430     5.2620 h1         1 NCE       0.018325
     64 H33        -17.9620    11.6160     7.5860 h1         1 NCE       0.012075
     65 H33A       -19.4060    11.6500     6.5580 h1         1 NCE       0.012075
     66 H27        -18.8040     8.3300     8.9130 h1         1 NCE       0.012075
     67 H27A       -17.6020     9.6300     8.9940 h1         1 NCE       0.012075
     68 H18        -18.1500     7.8380     6.6010 h1         1 NCE       0.018325
     69 H18A       -16.7230     7.7760     7.6500 h1         1 NCE       0.018325
@<TRIPOS>BOND
     1     1     2 1   
     2     1     6 1   
     3     1    37 1   
     4     1    38 1   
     5     2     3 1   
     6     2    39 1   
     7     2    40 1   
     8     3     4 1   
     9     4     5 1   
    10     4    41 1   
    11     4    42 1   
    12     5     6 1   
    13     5    43 1   
    14     5    44 1   
    15     6     7 1   
    16     7     8 1   
    17     7    45 1   
    18     7    46 1   
    19     8     9 1   
    20     8    47 1   
    21     8    48 1   
    22     9    10 2   
    23     9    11 1   
    24    11    12 1   
    25    11    49 1   
    26    12    13 ar  
    27    12    14 ar  
    28    13    18 ar  
    29    13    50 1   
    30    14    15 ar  
    31    14    51 1   
    32    15    16 ar  
    33    15    52 1   
    34    16    17 ar  
    35    16    18 ar  
    36    17    22 ar  
    37    17    53 1   
    38    18    19 ar  
    39    19    20 ar  
    40    20    21 ar  
    41    20    22 ar  
    42    21    25 ar  
    43    21    54 1   
    44    22    23 ar  
    45    23    24 ar  
    46    23    55 1   
    47    24    25 ar  
    48    24    56 1   
    49    25    26 1   
    50    26    27 1   
    51    26    57 1   
    52    27    28 2   
    53    27    29 1   
    54    29    30 1   
    55    29    58 1   
    56    29    59 1   
    57    30    31 1   
    58    30    60 1   
    59    30    61 1   
    60    31    32 1   
    61    31    36 1   
    62    32    33 1   
    63    32    62 1   
    64    32    63 1   
    65    33    34 1   
    66    33    64 1   
    67    33    65 1   
    68    34    35 1   
    69    35    36 1   
    70    35    66 1   
    71    35    67 1   
    72    36    68 1   
    73    36    69 1   
@<TRIPOS>SUBSTRUCTURE
     1 NCE         1 TEMP              0 ****  ****    0 ROOT
