@<TRIPOS>MOLECULE
NCF
   34    35     1     0     0
SMALL
bcc


@<TRIPOS>ATOM
      1 S1           0.0000     0.0000     0.0000 ss         1 NCF      -0.490200
      2 C2           1.8220     0.0000     0.0000 c3         1 NCF       0.097700
      3 C3           2.2890     0.0000     1.4570 c3         1 NCF      -0.094700
      4 C4           1.5880    -1.0390     2.2630 ce         1 NCF       0.360300
      5 C4'          2.2630    -1.4010     3.5320 c          1 NCF       0.869300
      6 O4A          1.7190    -2.3290     4.3430 o          1 NCF      -0.863800
      7 O4B          3.3040    -0.8600     3.8420 o          1 NCF      -0.863800
      8 N5           0.5260    -1.6510     2.0430 n2         1 NCF      -0.492900
      9 C6          -0.3500    -1.5500     0.8830 c3         1 NCF       0.244600
     10 C7          -1.8090    -1.5560     1.3450 c3         1 NCF      -0.084300
     11 C8          -2.7160    -1.5710     0.1410 c          1 NCF       0.646900
     12 O9          -3.4910    -2.4830    -0.0200 o          1 NCF      -0.570100
     13 N10         -2.0580    -2.7490     2.1580 ns         1 NCF      -0.124900
     14 C11         -3.0520    -2.7470     3.0680 c          1 NCF       0.581100
     15 O12         -3.7410    -1.7590     3.2140 o          1 NCF      -0.663100
     16 C13         -3.3090    -3.9750     3.9050 c3         1 NCF      -0.007100
     17 C14         -4.4650    -3.7140     4.8370 cc         1 NCF       0.071600
     18 C15         -5.7470    -3.9520     4.5570 cd         1 NCF      -0.143000
     19 C16         -6.6350    -3.6330     5.5690 cd         1 NCF      -0.124000
     20 C17         -6.0730    -3.1360     6.6720 cc         1 NCF      -0.019100
     21 S19         -4.3290    -3.0580     6.4630 ss         1 NCF      -0.254800
     22 H2C1         2.1880     0.8880    -0.5010 h1         1 NCF       0.037700
     23 H2C2         2.1880    -0.8880    -0.5010 h1         1 NCF       0.037700
     24 H3C1         2.0910     0.9730     1.8900 hc         1 NCF       0.053200
     25 H3C2         3.3550    -0.1940     1.4850 hc         1 NCF       0.053200
     26 H6          -0.1710    -2.3900     0.2230 h2         1 NCF       0.046700
     27 H7          -2.0050    -0.6690     1.9350 h1         1 NCF       0.095700
     28 H8          -2.7040    -0.7410    -0.5560 h4         1 NCF      -0.026800
     29 H10         -1.5170    -3.5780     2.0100 hn         1 NCF       0.182500
     30 H131        -2.4240    -4.2090     4.4840 hc         1 NCF       0.040700
     31 H132        -3.5490    -4.8100     3.2580 hc         1 NCF       0.040700
     32 H15         -6.0700    -4.3630     3.6080 ha         1 NCF       0.119000
     33 H16         -7.7050    -3.7740     5.4730 ha         1 NCF       0.107000
     34 H17         -6.6090    -2.8330     7.5630 h4         1 NCF       0.138000
@<TRIPOS>BOND
     1     1     2 1   
     2     1     9 1   
     3     2     3 1   
     4     2    22 1   
     5     2    23 1   
     6     3     4 1   
     7     3    24 1   
     8     3    25 1   
     9     4     5 1   
    10     4     8 2   
    11     5     6 1   
    12     5     7 1   
    13     8     9 1   
    14     9    10 1   
    15     9    26 1   
    16    10    11 1   
    17    10    13 1   
    18    10    27 1   
    19    11    12 2   
    20    11    28 1   
    21    13    14 1   
    22    13    29 1   
    23    14    15 2   
    24    14    16 1   
    25    16    17 1   
    26    16    30 1   
    27    16    31 1   
    28    17    18 2   
    29    17    21 1   
    30    18    19 1   
    31    18    32 1   
    32    19    20 2   
    33    19    33 1   
    34    20    21 1   
    35    20    34 1   
@<TRIPOS>SUBSTRUCTURE
     1 NCF         1 TEMP              0 ****  ****    0 ROOT
