@<TRIPOS>MOLECULE
NCH
   37    37     1     0     0
SMALL
bcc


@<TRIPOS>ATOM
      1 O4           0.0000     0.0000     0.0000 o          1 NCH      -0.640500
      2 P1           1.4800     0.0000     0.0000 p5         1 NCH       0.899800
      3 O1           2.0160     0.0000     1.5170 o          1 NCH      -0.640500
      4 O3           2.0170    -1.3150    -0.7580 os         1 NCH      -0.374500
      5 O2           2.0170     1.3140    -0.7590 os         1 NCH      -0.491200
      6 C1           1.4150     2.4380    -0.1150 c3         1 NCH       0.228400
      7 C2           1.8860     3.7270    -0.7920 c3         1 NCH      -0.033200
      8 N1           1.3400     3.7930    -2.1540 n4         1 NCH       0.060200
      9 C3          -0.1230     3.6650    -2.1020 c3         1 NCH       0.012100
     10 C5           1.9000     2.6980    -2.9580 c3         1 NCH       0.012100
     11 C4           1.6980     5.0800    -2.7630 c3         1 NCH       0.012100
     12 C1A          0.2780    -4.5600     1.1030 ca         1 NCH      -0.500200
     13 N1A         -0.3450    -5.7230     1.7720 no         1 NCH       1.061200
     14 O1N         -1.4170    -6.1500     1.3790 o          1 NCH      -0.471000
     15 O2N          0.2130    -6.2560     2.7150 o          1 NCH      -0.471000
     16 C2A         -0.3560    -3.9570     0.0330 ca         1 NCH       0.003000
     17 C3A          0.2240    -2.8700    -0.5920 ca         1 NCH      -0.152500
     18 C4A          1.4440    -2.3840    -0.1460 ca         1 NCH       0.276100
     19 C5A          2.0810    -2.9940     0.9250 ca         1 NCH      -0.152500
     20 C6A          1.4950    -4.0770     1.5500 ca         1 NCH       0.003000
     21 H11          0.3370     2.3630    -0.1920 h1         1 NCH       0.048200
     22 H12          1.7030     2.4530     0.9290 h1         1 NCH       0.048200
     23 H21          1.5400     4.5820    -0.2230 hx         1 NCH       0.067700
     24 H22          2.9680     3.7370    -0.8360 hx         1 NCH       0.067700
     25 H31         -0.5040     4.2170    -1.2520 hx         1 NCH       0.070367
     26 H32         -0.3910     2.6200    -2.0030 hx         1 NCH       0.070367
     27 H33         -0.5530     4.0630    -3.0140 hx         1 NCH       0.070367
     28 H51          2.9330     2.5350    -2.6780 hx         1 NCH       0.070367
     29 H52          1.3310     1.7930    -2.7820 hx         1 NCH       0.070367
     30 H53          1.8470     2.9580    -4.0090 hx         1 NCH       0.070367
     31 H41          1.3140     5.1200    -3.7750 hx         1 NCH       0.070367
     32 H42          1.2680     5.8870    -2.1820 hx         1 NCH       0.070367
     33 H43          2.7760     5.1840    -2.7820 hx         1 NCH       0.070367
     34 H2A         -1.3090    -4.3370    -0.3160 ha         1 NCH       0.120500
     35 H3A         -0.2740    -2.3980    -1.4310 ha         1 NCH       0.127000
     36 H5A          3.0340    -2.6160     1.2760 ha         1 NCH       0.127000
     37 H6A          1.9920    -4.5540     2.3870 ha         1 NCH       0.120500
@<TRIPOS>BOND
     1     1     2 1   
     2     2     3 1   
     3     2     4 1   
     4     2     5 1   
     5     4    18 1   
     6     5     6 1   
     7     6     7 1   
     8     6    21 1   
     9     6    22 1   
    10     7     8 1   
    11     7    23 1   
    12     7    24 1   
    13     8     9 1   
    14     8    10 1   
    15     8    11 1   
    16     9    25 1   
    17     9    26 1   
    18     9    27 1   
    19    10    28 1   
    20    10    29 1   
    21    10    30 1   
    22    11    31 1   
    23    11    32 1   
    24    11    33 1   
    25    12    13 1   
    26    12    16 ar  
    27    12    20 ar  
    28    13    14 1   
    29    13    15 1   
    30    16    17 ar  
    31    16    34 1   
    32    17    18 ar  
    33    17    35 1   
    34    18    19 ar  
    35    19    20 ar  
    36    19    36 1   
    37    20    37 1   
@<TRIPOS>SUBSTRUCTURE
     1 NCH         1 TEMP              0 ****  ****    0 ROOT
