@<TRIPOS>MOLECULE
molecule
   85    89     1     0     0
SMALL
bcc


@<TRIPOS>ATOM
      1 O39          0.0000     0.0000     0.0000 o          1 NCI      -0.594100
      2 C9           1.2130     0.0000     0.0000 c          1 NCI       0.659100
      3 C10          1.9660     0.0000     1.3060 c3         1 NCI      -0.159900
      4 C13          0.9710    -0.0010     2.4680 c3         1 NCI       0.171300
      5 N16          1.7060    -0.0020     3.7410 n3         1 NCI      -0.733600
      6 C18          0.7870     0.1310     4.8780 c3         1 NCI       0.176500
      7 C20         -0.0890     1.3700     4.6840 c3         1 NCI      -0.084400
      8 C23          0.8020     2.6010     4.5020 c3         1 NCI      -0.095100
      9 C27          1.5920     0.2730     6.1720 c3         1 NCI      -0.074400
     10 C30          2.4820    -0.9600     6.3510 c3         1 NCI      -0.082900
     11 C33          3.3950    -1.1030     5.1310 c3         1 NCI      -0.078400
     12 C36          2.5380    -1.2050     3.8680 c3         1 NCI       0.160300
     13 N7           1.8880    -0.0040    -1.1660 ns         1 NCI      -0.480600
     14 C6           1.1920    -0.1020    -2.3740 ca         1 NCI       0.084100
     15 C40         -0.0530     0.5270    -2.4990 ca         1 NCI      -0.129500
     16 C42         -0.7670     0.4600    -3.6510 ca         1 NCI      -0.092500
     17 C4           1.7480    -0.8070    -3.4100 ca         1 NCI      -0.227800
     18 C3           1.0540    -0.9110    -4.6310 ca         1 NCI       0.459600
     19 N1           1.5710    -1.5890    -5.6520 nb         1 NCI      -0.692000
     20 C44         -0.2520    -0.2550    -4.7520 ca         1 NCI      -0.176800
     21 C45         -0.9600    -0.3440    -5.9520 ca         1 NCI      -0.052000
     22 C2          -0.3870    -1.0690    -6.9980 ca         1 NCI      -0.176800
     23 C47         -1.0420    -1.2040    -8.2390 ca         1 NCI      -0.092500
     24 C49         -0.4570    -1.9170    -9.2340 ca         1 NCI      -0.129500
     25 C51          0.7920    -2.5270    -9.0590 ca         1 NCI       0.084100
     26 C85          1.4780    -2.4330    -7.8760 ca         1 NCI      -0.227800
     27 C87          0.9260    -1.6950    -6.8110 ca         1 NCI       0.459600
     28 N52          1.3520    -3.2490   -10.1160 ns         1 NCI      -0.480600
     29 C54          1.1560    -2.8450   -11.3860 c          1 NCI       0.659100
     30 O84          0.5760    -1.8040   -11.6090 o          1 NCI      -0.594100
     31 C55          1.6610    -3.6870   -12.5310 c3         1 NCI      -0.159900
     32 C58          1.3120    -3.0060   -13.8560 c3         1 NCI       0.171300
     33 N61          1.8040    -3.8260   -14.9710 n3         1 NCI      -0.733600
     34 C63          1.2800    -3.3380   -16.2540 c3         1 NCI       0.176500
     35 C77         -0.2460    -3.2610   -16.1850 c3         1 NCI      -0.084400
     36 C80         -0.8090    -4.6300   -15.7990 c3         1 NCI      -0.095100
     37 C66          1.6920    -4.2990   -17.3720 c3         1 NCI      -0.074400
     38 C69          3.2200    -4.3880   -17.4240 c3         1 NCI      -0.082900
     39 C72          3.7420    -4.8510   -16.0610 c3         1 NCI      -0.078400
     40 C75          3.2720    -3.8760   -14.9810 c3         1 NCI       0.160300
     41 H10          2.5890    -0.8840     1.3630 hc         1 NCI       0.069950
     42 H10A         2.5880     0.8850     1.3640 hc         1 NCI       0.069950
     43 H13          0.3490    -0.8860     2.4100 h1         1 NCI       0.054700
     44 H13A         0.3480     0.8830     2.4120 h1         1 NCI       0.054700
     45 H18          0.1620    -0.7520     4.9400 h1         1 NCI       0.026200
     46 H20         -0.7200     1.5060     5.5540 hc         1 NCI       0.044450
     47 H20A        -0.7090     1.2400     3.8050 hc         1 NCI       0.044450
     48 H23          0.8810     3.1310     5.4440 hc         1 NCI       0.038867
     49 H23A         0.3670     3.2540     3.7550 hc         1 NCI       0.038867
     50 H23B         1.7880     2.2880     4.1790 hc         1 NCI       0.038867
     51 H27          0.9130     0.3530     7.0120 hc         1 NCI       0.050200
     52 H27A         2.2120     1.1600     6.1150 hc         1 NCI       0.050200
     53 H30          3.0860    -0.8420     7.2430 hc         1 NCI       0.040950
     54 H30A         1.8610    -1.8430     6.4430 hc         1 NCI       0.040950
     55 H33          3.9950    -2.0000     5.2330 hc         1 NCI       0.047200
     56 H33A         4.0400    -0.2360     5.0600 hc         1 NCI       0.047200
     57 H36          3.1830    -1.2890     3.0020 h1         1 NCI       0.032450
     58 H36A         1.9000    -2.0780     3.9360 h1         1 NCI       0.032450
     59 HN7          2.8830     0.0990    -1.1690 hn         1 NCI       0.327500
     60 H40         -0.4540     1.0810    -1.6590 ha         1 NCI       0.163000
     61 H42         -1.7290     0.9550    -3.7240 ha         1 NCI       0.139000
     62 H4           2.7610    -1.1810    -3.3290 ha         1 NCI       0.148000
     63 H45         -2.0150    -0.0970    -5.9780 ha         1 NCI       0.143000
     64 H47         -2.0090    -0.7410    -8.3970 ha         1 NCI       0.139000
     65 H49         -0.9660    -2.0150   -10.1860 ha         1 NCI       0.163000
     66 H85          2.4420    -2.9130    -7.7660 ha         1 NCI       0.148000
     67 HN52         1.9830    -4.0010    -9.9250 hn         1 NCI       0.327500
     68 H55          2.7360    -3.7950   -12.4520 hc         1 NCI       0.069950
     69 H55A         1.1960    -4.6640   -12.4930 hc         1 NCI       0.069950
     70 H58          0.2370    -2.8980   -13.9340 h1         1 NCI       0.054700
     71 H58A         1.7770    -2.0290   -13.8930 h1         1 NCI       0.054700
     72 H63          1.6870    -2.3550   -16.4570 h1         1 NCI       0.026200
     73 H77         -0.5380    -2.5280   -15.4420 hc         1 NCI       0.044450
     74 H77A        -0.6370    -2.9700   -17.1520 hc         1 NCI       0.044450
     75 H80         -1.1340    -5.1520   -16.6900 hc         1 NCI       0.038867
     76 H80A        -1.6510    -4.4990   -15.1300 hc         1 NCI       0.038867
     77 H80B        -0.0400    -5.2090   -15.3010 hc         1 NCI       0.038867
     78 H66          1.2800    -5.2810   -17.1740 hc         1 NCI       0.050200
     79 H66A         1.3210    -3.9290   -18.3200 hc         1 NCI       0.050200
     80 H69          3.5140    -5.1010   -18.1850 hc         1 NCI       0.040950
     81 H69A         3.6310    -3.4130   -17.6560 hc         1 NCI       0.040950
     82 H72          3.3580    -5.8410   -15.8450 hc         1 NCI       0.047200
     83 H72A         4.8250    -4.8740   -16.0790 hc         1 NCI       0.047200
     84 H75          3.6640    -2.8880   -15.1930 h1         1 NCI       0.032450
     85 H75A         3.6270    -4.2110   -14.0140 h1         1 NCI       0.032450
@<TRIPOS>BOND
     1     2     1 2
     2     3     2 1
     3     2    13 1
     4     4     3 1
     5     3    41 1
     6     3    42 1
     7     5     4 1
     8     4    43 1
     9     4    44 1
    10     6     5 1
    11    12     5 1
    12     9     6 1
    13     6     7 1
    14     6    45 1
    15     8     7 1
    16     7    46 1
    17     7    47 1
    18     8    48 1
    19     8    49 1
    20     8    50 1
    21    10     9 1
    22     9    51 1
    23     9    52 1
    24    10    11 1
    25    10    53 1
    26    10    54 1
    27    11    12 1
    28    11    55 1
    29    11    56 1
    30    12    57 1
    31    12    58 1
    32    13    14 1
    33    13    59 1
    34    14    17 ar
    35    14    15 ar
    36    15    16 ar
    37    15    60 1
    38    16    20 ar
    39    16    61 1
    40    17    18 ar
    41    17    62 1
    42    18    19 ar
    43    18    20 ar
    44    19    27 ar
    45    20    21 ar
    46    21    22 ar
    47    21    63 1
    48    27    22 ar
    49    22    23 ar
    50    23    24 ar
    51    23    64 1
    52    25    24 ar
    53    24    65 1
    54    26    25 ar
    55    25    28 1
    56    27    26 ar
    57    26    66 1
    58    29    28 1
    59    28    67 1
    60    30    29 2
    61    29    31 1
    62    32    31 1
    63    31    68 1
    64    31    69 1
    65    32    33 1
    66    32    70 1
    67    32    71 1
    68    34    33 1
    69    33    40 1
    70    35    34 1
    71    34    37 1
    72    34    72 1
    73    36    35 1
    74    35    73 1
    75    35    74 1
    76    36    75 1
    77    36    76 1
    78    36    77 1
    79    37    38 1
    80    37    78 1
    81    37    79 1
    82    38    39 1
    83    38    80 1
    84    38    81 1
    85    40    39 1
    86    39    82 1
    87    39    83 1
    88    40    84 1
    89    40    85 1
@<TRIPOS>SUBSTRUCTURE
     1 NCI         1 TEMP              0 ****  ****    0 ROOT
