@<TRIPOS>MOLECULE
molecule
   79    83     1     0     0
SMALL
bcc


@<TRIPOS>ATOM
      1 O39          0.0000     0.0000     0.0000 o          1 NCJ      -0.593600
      2 C9           1.2120     0.0000     0.0000 c          1 NCJ       0.659100
      3 C10          1.9650     0.0000     1.3050 c3         1 NCJ      -0.159400
      4 C13          0.9710     0.0010     2.4680 c3         1 NCJ       0.172800
      5 N16          1.7060     0.0020     3.7410 n3         1 NCJ      -0.733600
      6 C18          0.7980     0.2380     4.8720 c3         1 NCJ       0.174500
      7 C20          0.0050     1.5230     4.6280 c3         1 NCJ      -0.094100
      8 C27          1.6120     0.3770     6.1600 c3         1 NCJ      -0.073400
      9 C30          2.4200    -0.9030     6.3880 c3         1 NCJ      -0.082400
     10 C33          3.3210    -1.1520     5.1750 c3         1 NCJ      -0.078400
     11 C36          2.4570    -1.2470     3.9150 c3         1 NCJ       0.160300
     12 N7           1.8870    -0.0070    -1.1660 ns         1 NCJ      -0.480100
     13 C6           1.1920    -0.1140    -2.3730 ca         1 NCJ       0.084100
     14 C40         -0.0440     0.5310    -2.5100 ca         1 NCJ      -0.129000
     15 C42         -0.7570     0.4590    -3.6620 ca         1 NCJ      -0.092500
     16 C4           1.7390    -0.8420    -3.3970 ca         1 NCJ      -0.227300
     17 C3           1.0460    -0.9540    -4.6180 ca         1 NCJ       0.459600
     18 N1           1.5540    -1.6550    -5.6280 nb         1 NCJ      -0.692000
     19 C44         -0.2500    -0.2810    -4.7510 ca         1 NCJ      -0.176800
     20 C45         -0.9580    -0.3780    -5.9510 ca         1 NCJ      -0.052000
     21 C2          -0.3940    -1.1280    -6.9850 ca         1 NCJ      -0.176800
     22 C47         -1.0490    -1.2720    -8.2260 ca         1 NCJ      -0.092500
     23 C49         -0.4720    -2.0080    -9.2080 ca         1 NCJ      -0.129000
     24 C51          0.7680    -2.6340    -9.0220 ca         1 NCJ       0.084100
     25 C85          1.4530    -2.5310    -7.8400 ca         1 NCJ      -0.227300
     26 C87          0.9100    -1.7700    -6.7860 ca         1 NCJ       0.459600
     27 N52          1.3180    -3.3800   -10.0660 ns         1 NCJ      -0.480100
     28 C54          1.1150    -3.0030   -11.3430 c          1 NCJ       0.659100
     29 O84          0.5340    -1.9660   -11.5850 o          1 NCJ      -0.593600
     30 C55          1.6100    -3.8700   -12.4720 c3         1 NCJ      -0.159400
     31 C58          1.2540    -3.2180   -13.8100 c3         1 NCJ       0.172800
     32 N61          1.7360    -4.0630   -14.9110 n3         1 NCJ      -0.733600
     33 C63          1.1700    -3.6290   -16.1950 c3         1 NCJ       0.174500
     34 C77         -0.3550    -3.5820   -16.0910 c3         1 NCJ      -0.094100
     35 C66          1.5770    -4.6150   -17.2920 c3         1 NCJ      -0.073400
     36 C69          3.1050    -4.6730   -17.3790 c3         1 NCJ      -0.082400
     37 C72          3.6710    -5.0810   -16.0160 c3         1 NCJ      -0.078400
     38 C75          3.2030    -4.0810   -14.9560 c3         1 NCJ       0.160300
     39 H10          2.5890     0.8840     1.3620 hc         1 NCJ       0.069950
     40 H10A         2.5870    -0.8850     1.3630 hc         1 NCJ       0.069950
     41 H13          0.3480    -0.8830     2.4120 h1         1 NCJ       0.053450
     42 H13A         0.3490     0.8860     2.4100 h1         1 NCJ       0.053450
     43 H18          0.1170    -0.5990     4.9660 h1         1 NCJ       0.026200
     44 H20         -0.8550     1.3050     4.0060 hc         1 NCJ       0.041533
     45 H20A        -0.3290     1.9270     5.5770 hc         1 NCJ       0.041533
     46 H20B         0.6360     2.2490     4.1300 hc         1 NCJ       0.041533
     47 H27          2.2880     1.2180     6.0700 hc         1 NCJ       0.049200
     48 H27A         0.9400     0.5320     6.9950 hc         1 NCJ       0.049200
     49 H30          1.7430    -1.7400     6.5120 hc         1 NCJ       0.040700
     50 H30A         3.0320    -0.7910     7.2740 hc         1 NCJ       0.040700
     51 H33          3.8620    -2.0810     5.3120 hc         1 NCJ       0.047450
     52 H33A         4.0210    -0.3320     5.0710 hc         1 NCJ       0.047450
     53 H36          3.0940    -1.4070     3.0530 h1         1 NCJ       0.032200
     54 H36A         1.7640    -2.0740     4.0160 h1         1 NCJ       0.032200
     55 HN7          2.8810     0.1020    -1.1700 hn         1 NCJ       0.327500
     56 H40         -0.4390     1.1030    -1.6790 ha         1 NCJ       0.162500
     57 H42         -1.7110     0.9660    -3.7460 ha         1 NCJ       0.139000
     58 H4           2.7500    -1.2220    -3.3110 ha         1 NCJ       0.148000
     59 H45         -2.0090    -0.1170    -5.9820 ha         1 NCJ       0.143000
     60 H47         -2.0080    -0.7980    -8.3930 ha         1 NCJ       0.139000
     61 H49         -0.9820    -2.1150   -10.1580 ha         1 NCJ       0.162500
     62 H85          2.4100    -3.0230    -7.7200 ha         1 NCJ       0.148000
     63 HN52         1.9510    -4.1280    -9.8620 hn         1 NCJ       0.327500
     64 H55          2.6850    -3.9790   -12.3990 hc         1 NCJ       0.069950
     65 H55A         1.1430    -4.8460   -12.4100 hc         1 NCJ       0.069950
     66 H58          1.7200    -2.2430   -13.8720 h1         1 NCJ       0.053450
     67 H58A         0.1780    -3.1090   -13.8830 h1         1 NCJ       0.053450
     68 H63          1.5500    -2.6440   -16.4390 h1         1 NCJ       0.026200
     69 H77         -0.6990    -4.3900   -15.4560 hc         1 NCJ       0.041533
     70 H77A        -0.6590    -2.6340   -15.6640 hc         1 NCJ       0.041533
     71 H77B        -0.7880    -3.6890   -17.0780 hc         1 NCJ       0.041533
     72 H66          1.1740    -4.2830   -18.2420 hc         1 NCJ       0.049200
     73 H66A         1.1920    -5.5990   -17.0540 hc         1 NCJ       0.049200
     74 H69          3.3960    -5.4030   -18.1240 hc         1 NCJ       0.040700
     75 H69A         3.4880    -3.6970   -17.6510 hc         1 NCJ       0.040700
     76 H72          4.7530    -5.0800   -16.0600 hc         1 NCJ       0.047450
     77 H72A         3.3150    -6.0720   -15.7600 hc         1 NCJ       0.047450
     78 H75          3.5890    -4.3770   -13.9880 h1         1 NCJ       0.032200
     79 H75A         3.5680    -3.0930   -15.2080 h1         1 NCJ       0.032200
@<TRIPOS>BOND
     1     2     1 2
     2     3     2 1
     3     2    12 1
     4     4     3 1
     5     3    39 1
     6     3    40 1
     7     5     4 1
     8     4    41 1
     9     4    42 1
    10     6     5 1
    11    11     5 1
    12     8     6 1
    13     6     7 1
    14     6    43 1
    15     7    44 1
    16     7    45 1
    17     7    46 1
    18     9     8 1
    19     8    47 1
    20     8    48 1
    21     9    10 1
    22     9    49 1
    23     9    50 1
    24    10    11 1
    25    10    51 1
    26    10    52 1
    27    11    53 1
    28    11    54 1
    29    12    13 1
    30    12    55 1
    31    13    16 ar
    32    13    14 ar
    33    14    15 ar
    34    14    56 1
    35    15    19 ar
    36    15    57 1
    37    16    17 ar
    38    16    58 1
    39    17    18 ar
    40    17    19 ar
    41    18    26 ar
    42    19    20 ar
    43    20    21 ar
    44    20    59 1
    45    26    21 ar
    46    21    22 ar
    47    22    23 ar
    48    22    60 1
    49    24    23 ar
    50    23    61 1
    51    25    24 ar
    52    24    27 1
    53    26    25 ar
    54    25    62 1
    55    28    27 1
    56    27    63 1
    57    29    28 2
    58    28    30 1
    59    31    30 1
    60    30    64 1
    61    30    65 1
    62    31    32 1
    63    31    66 1
    64    31    67 1
    65    33    32 1
    66    32    38 1
    67    34    33 1
    68    33    35 1
    69    33    68 1
    70    34    69 1
    71    34    70 1
    72    34    71 1
    73    35    36 1
    74    35    72 1
    75    35    73 1
    76    36    37 1
    77    36    74 1
    78    36    75 1
    79    38    37 1
    80    37    76 1
    81    37    77 1
    82    38    78 1
    83    38    79 1
@<TRIPOS>SUBSTRUCTURE
     1 NCJ         1 TEMP              0 ****  ****    0 ROOT
