@<TRIPOS>MOLECULE
NCK
   79    83     1     0     0
SMALL
bcc


@<TRIPOS>ATOM
      1 O39          0.0000     0.0000     0.0000 o          1 NCK      -0.631600
      2 C9           1.2130     0.0000     0.0000 c          1 NCK       0.561100
      3 C10          1.9670     0.0000     1.3050 c3         1 NCK      -0.108900
      4 C13          0.9730    -0.0010     2.4680 c3         1 NCK       0.166300
      5 N16          1.7070    -0.0010     3.7390 n3         1 NCK      -0.547100
      6 C18          0.8020    -0.2390     4.8710 c3         1 NCK       0.152800
      7 C27          1.6170    -0.3780     6.1590 c3         1 NCK      -0.023400
      8 C30          2.4240     0.9040     6.3870 c3         1 NCK      -0.055200
      9 C20          3.2860     0.7490     7.6410 c3         1 NCK       0.008900
     10 C33          3.3230     1.1550     5.1740 c3         1 NCK      -0.023400
     11 C36          2.4580     1.2490     3.9150 c3         1 NCK       0.152800
     12 N7           1.8870    -0.0050    -1.1680 ns         1 NCK      -0.036100
     13 C6           1.1910    -0.1050    -2.3740 ca         1 NCK      -0.079400
     14 C40         -0.0570     0.5200    -2.4980 ca         1 NCK      -0.117500
     15 C42         -0.7720     0.4520    -3.6490 ca         1 NCK      -0.063500
     16 C4           1.7480    -0.8060    -3.4110 ca         1 NCK      -0.175300
     17 C3           1.0530    -0.9110    -4.6320 ca         1 NCK       0.406100
     18 N1           1.5710    -1.5870    -5.6540 nb         1 NCK      -0.563000
     19 C44         -0.2550    -0.2590    -4.7510 ca         1 NCK      -0.163800
     20 C45         -0.9650    -0.3500    -5.9510 ca         1 NCK      -0.037000
     21 C2          -0.3880    -1.0720    -6.9990 ca         1 NCK      -0.163800
     22 C87          0.9260    -1.6950    -6.8120 ca         1 NCK       0.406100
     23 C47         -1.0440    -1.2070    -8.2390 ca         1 NCK      -0.063500
     24 C49         -0.4560    -1.9170    -9.2360 ca         1 NCK      -0.117500
     25 C51          0.7940    -2.5230    -9.0620 ca         1 NCK      -0.079400
     26 C85          1.4870    -2.4140    -7.8860 ca         1 NCK      -0.175300
     27 N52          1.3560    -3.2420   -10.1190 ns         1 NCK      -0.036100
     28 C54          2.0850    -4.3480    -9.8700 c          1 NCK       0.561100
     29 O84          2.3200    -4.6740    -8.7250 o          1 NCK      -0.631600
     30 C55          2.6040    -5.1820   -11.0130 c3         1 NCK      -0.108900
     31 C58          3.3940    -6.3700   -10.4600 c3         1 NCK       0.166300
     32 N61          3.9010    -7.1820   -11.5740 n3         1 NCK      -0.547100
     33 C63          4.8900    -6.4350   -12.3620 c3         1 NCK       0.152800
     34 C66          5.2870    -7.2530   -13.5920 c3         1 NCK      -0.023400
     35 C69          5.8730    -8.5940   -13.1400 c3         1 NCK      -0.055200
     36 C77          6.2160    -9.4420   -14.3670 c3         1 NCK       0.008900
     37 C72          4.8410    -9.3300   -12.2830 c3         1 NCK      -0.023400
     38 C75          4.4560    -8.4520   -11.0900 c3         1 NCK       0.152800
     39 H10          2.5890     0.8850     1.3620 hc         1 NCK       0.037700
     40 H10A         2.5900    -0.8840     1.3620 hc         1 NCK       0.037700
     41 H13          0.3500    -0.8860     2.4110 h1         1 NCK       0.024950
     42 H13A         0.3500     0.8830     2.4110 h1         1 NCK       0.024950
     43 H18          0.1190     0.5960     4.9660 h1         1 NCK       0.009325
     44 H18A         0.2440    -1.1510     4.6990 h1         1 NCK       0.009325
     45 H27          0.9460    -0.5350     6.9950 hc         1 NCK       0.021075
     46 H27A         2.2940    -1.2180     6.0680 hc         1 NCK       0.021075
     47 H30          1.7450     1.7400     6.5110 hc         1 NCK       0.025200
     48 H20          3.8580     1.6550     7.8000 hc         1 NCK       0.002367
     49 H20A         3.9620    -0.0880     7.5120 hc         1 NCK       0.002367
     50 H20B         2.6480     0.5690     8.4980 hc         1 NCK       0.002367
     51 H33          4.0240     0.3350     5.0690 hc         1 NCK       0.021075
     52 H33A         3.8630     2.0840     5.3110 hc         1 NCK       0.021075
     53 H36          3.0940     1.4110     3.0530 h1         1 NCK       0.009325
     54 H36A         1.7630     2.0740     4.0170 h1         1 NCK       0.009325
     55 HN7          2.8830     0.0910    -1.1710 hn         1 NCK       0.168000
     56 H40         -0.4590     1.0720    -1.6560 ha         1 NCK       0.124000
     57 H42         -1.7350     0.9430    -3.7210 ha         1 NCK       0.108000
     58 H4           2.7640    -1.1740    -3.3330 ha         1 NCK       0.141500
     59 H45         -2.0210    -0.1100    -5.9750 ha         1 NCK       0.113000
     60 H47         -2.0120    -0.7470    -8.3960 ha         1 NCK       0.108000
     61 H49         -0.9720    -2.0280   -10.1820 ha         1 NCK       0.124000
     62 H85          2.4530    -2.8920    -7.7760 ha         1 NCK       0.141500
     63 HN52         1.1280    -2.9990   -11.0620 hn         1 NCK       0.168000
     64 H55          3.2520    -4.5760   -11.6350 hc         1 NCK       0.037700
     65 H55A         1.7720    -5.5440   -11.6030 hc         1 NCK       0.037700
     66 H58          4.2260    -6.0080    -9.8690 h1         1 NCK       0.024950
     67 H58A         2.7460    -6.9760    -9.8380 h1         1 NCK       0.024950
     68 H63          4.4590    -5.4930   -12.6800 h1         1 NCK       0.009325
     69 H63A         5.7680    -6.2500   -11.7550 h1         1 NCK       0.009325
     70 H66          6.0310    -6.7080   -14.1620 hc         1 NCK       0.021075
     71 H66A         4.4120    -7.4300   -14.2060 hc         1 NCK       0.021075
     72 H69          6.7670    -8.4170   -12.5550 hc         1 NCK       0.025200
     73 H77          5.3190    -9.6150   -14.9490 hc         1 NCK       0.002367
     74 H77A         6.6280   -10.3910   -14.0460 hc         1 NCK       0.002367
     75 H77B         6.9450    -8.9190   -14.9750 hc         1 NCK       0.002367
     76 H72          3.9590    -9.5370   -12.8780 hc         1 NCK       0.021075
     77 H72A         5.2680   -10.2590   -11.9240 hc         1 NCK       0.021075
     78 H75          5.3360    -8.2540   -10.4900 h1         1 NCK       0.009325
     79 H75A         3.7130    -8.9640   -10.4910 h1         1 NCK       0.009325
@<TRIPOS>BOND
     1     1     2 2   
     2     2     3 1   
     3     2    12 1   
     4     3     4 1   
     5     3    39 1   
     6     3    40 1   
     7     4     5 1   
     8     4    41 1   
     9     4    42 1   
    10     5     6 1   
    11     5    11 1   
    12     6     7 1   
    13     6    43 1   
    14     6    44 1   
    15     7     8 1   
    16     7    45 1   
    17     7    46 1   
    18     8     9 1   
    19     8    10 1   
    20     8    47 1   
    21     9    48 1   
    22     9    49 1   
    23     9    50 1   
    24    10    11 1   
    25    10    51 1   
    26    10    52 1   
    27    11    53 1   
    28    11    54 1   
    29    12    13 1   
    30    12    55 1   
    31    13    14 ar  
    32    13    16 ar  
    33    14    15 ar  
    34    14    56 1   
    35    15    19 ar  
    36    15    57 1   
    37    16    17 ar  
    38    16    58 1   
    39    17    18 ar  
    40    17    19 ar  
    41    18    22 ar  
    42    19    20 ar  
    43    20    21 ar  
    44    20    59 1   
    45    21    22 ar  
    46    21    23 ar  
    47    22    26 ar  
    48    23    24 ar  
    49    23    60 1   
    50    24    25 ar  
    51    24    61 1   
    52    25    26 ar  
    53    25    27 1   
    54    26    62 1   
    55    27    28 1   
    56    27    63 1   
    57    28    29 2   
    58    28    30 1   
    59    30    31 1   
    60    30    64 1   
    61    30    65 1   
    62    31    32 1   
    63    31    66 1   
    64    31    67 1   
    65    32    33 1   
    66    32    38 1   
    67    33    34 1   
    68    33    68 1   
    69    33    69 1   
    70    34    35 1   
    71    34    70 1   
    72    34    71 1   
    73    35    36 1   
    74    35    37 1   
    75    35    72 1   
    76    36    73 1   
    77    36    74 1   
    78    36    75 1   
    79    37    38 1   
    80    37    76 1   
    81    37    77 1   
    82    38    78 1   
    83    38    79 1   
@<TRIPOS>SUBSTRUCTURE
     1 NCK         1 TEMP              0 ****  ****    0 ROOT
