@<TRIPOS>MOLECULE
NCL
   79    83     1     0     0
SMALL
bcc


@<TRIPOS>ATOM
      1 O39          0.0000     0.0000     0.0000 o          1 NCL      -0.632600
      2 C9           1.2130     0.0000     0.0000 c          1 NCL       0.563100
      3 C10          1.9670     0.0000     1.3050 c3         1 NCL      -0.109400
      4 C13          0.9720     0.0020     2.4680 c3         1 NCL       0.166300
      5 N16          1.7060     0.0030     3.7410 n3         1 NCL      -0.545100
      6 C18          0.8000     0.2430     4.8710 c3         1 NCL       0.160300
      7 C27          1.6150     0.3820     6.1590 c3         1 NCL      -0.050200
      8 C20          2.5710     1.5690     6.0330 c3         1 NCL       0.001900
      9 C30          2.4200    -0.9000     6.3880 c3         1 NCL      -0.024900
     10 C33          3.3200    -1.1530     5.1760 c3         1 NCL      -0.026400
     11 C36          2.4550    -1.2480     3.9170 c3         1 NCL       0.144800
     12 N7           1.8870    -0.0070    -1.1660 ns         1 NCL      -0.039100
     13 C6           1.1940    -0.1210    -2.3730 ca         1 NCL      -0.062400
     14 C4           1.6670     0.5310    -3.4800 ca         1 NCL      -0.201300
     15 C3           0.9730     0.4220    -4.7020 ca         1 NCL       0.411100
     16 N1           1.4120     1.0450    -5.7920 nb         1 NCL      -0.579000
     17 C40          0.0320    -0.9030    -2.4230 ca         1 NCL      -0.107500
     18 C42         -0.6770    -1.0460    -3.5710 ca         1 NCL      -0.061500
     19 C44         -0.2450    -0.3950    -4.7440 ca         1 NCL      -0.164300
     20 C45         -0.9510    -0.5190    -5.9430 ca         1 NCL      -0.032000
     21 C2          -0.4570     0.1510    -7.0650 ca         1 NCL      -0.164300
     22 C47         -1.1150     0.0740    -8.3100 ca         1 NCL      -0.061500
     23 C49         -0.6080     0.7380    -9.3790 ca         1 NCL      -0.107500
     24 C87          0.7670     0.9500    -6.9510 ca         1 NCL       0.411100
     25 C85          1.2440     1.6170    -8.0960 ca         1 NCL      -0.201300
     26 C51          0.5610     1.5040    -9.2790 ca         1 NCL      -0.062400
     27 N52          1.0410     2.1680   -10.4100 ns         1 NCL      -0.039100
     28 C54          0.1760     2.7090   -11.2910 c          1 NCL       0.563100
     29 O84         -1.0170     2.5500   -11.1450 o          1 NCL      -0.632600
     30 C55          0.6930     3.5150   -12.4540 c3         1 NCL      -0.109400
     31 C58         -0.4860     4.0120   -13.2940 c3         1 NCL       0.166300
     32 N61          0.0170     4.7970   -14.4290 n3         1 NCL      -0.545100
     33 C63         -1.0790     5.4920   -15.1150 c3         1 NCL       0.160300
     34 C66         -0.5050     6.4100   -16.1960 c3         1 NCL      -0.050200
     35 C77         -1.6490     7.1170   -16.9260 c3         1 NCL       0.001900
     36 C69          0.3000     5.5740   -17.1960 c3         1 NCL      -0.024900
     37 C72          1.4040     4.8230   -16.4470 c3         1 NCL      -0.026400
     38 C75          0.7740     3.9510   -15.3580 c3         1 NCL       0.144800
     39 H10          2.5900     0.8840     1.3620 hc         1 NCL       0.038200
     40 H10A         2.5880    -0.8850     1.3630 hc         1 NCL       0.038200
     41 H13          0.3490    -0.8820     2.4120 h1         1 NCL       0.024700
     42 H13A         0.3500     0.8870     2.4100 h1         1 NCL       0.024700
     43 H18          0.2420     1.1550     4.6970 h1         1 NCL       0.011700
     44 H18A         0.1150    -0.5920     4.9660 h1         1 NCL       0.011700
     45 H27          0.9440     0.5390     6.9940 hc         1 NCL       0.031200
     46 H20          3.3210     1.5140     6.8120 hc         1 NCL       0.006200
     47 H20A         3.0540     1.5430     5.0630 hc         1 NCL       0.006200
     48 H20B         2.0140     2.4930     6.1330 hc         1 NCL       0.006200
     49 H30          1.7400    -1.7350     6.5140 hc         1 NCL       0.014700
     50 H30A         3.0320    -0.7890     7.2750 hc         1 NCL       0.014700
     51 H33          4.0210    -0.3340     5.0710 hc         1 NCL       0.019200
     52 H33A         3.8590    -2.0820     5.3140 hc         1 NCL       0.019200
     53 H36          1.7600    -2.0720     4.0190 h1         1 NCL       0.008950
     54 H36A         3.0910    -1.4110     3.0550 h1         1 NCL       0.008950
     55 HN7          2.8860     0.0560    -1.1680 hn         1 NCL       0.169500
     56 H4           2.6270     1.0320    -3.4450 ha         1 NCL       0.121000
     57 H40         -0.3070    -1.4070    -1.5260 ha         1 NCL       0.141000
     58 H42         -1.5720    -1.6560    -3.5850 ha         1 NCL       0.109000
     59 H45         -1.9700    -0.8850    -5.9360 ha         1 NCL       0.115000
     60 H47         -2.0200    -0.5120    -8.4120 ha         1 NCL       0.109000
     61 H49         -1.1190     0.6740   -10.3320 ha         1 NCL       0.141000
     62 H85          2.1460     2.2150    -8.0430 ha         1 NCL       0.121000
     63 HN52         2.0220     2.3370   -10.5080 hn         1 NCL       0.169500
     64 H55          1.3350     2.8940   -13.0660 hc         1 NCL       0.038200
     65 H55A         1.2560     4.3630   -12.0840 hc         1 NCL       0.038200
     66 H58         -1.1290     4.6340   -12.6820 h1         1 NCL       0.024700
     67 H58A        -1.0500     3.1640   -13.6630 h1         1 NCL       0.024700
     68 H63         -1.6340     6.0840   -14.3980 h1         1 NCL       0.011700
     69 H63A        -1.7360     4.7630   -15.5750 h1         1 NCL       0.011700
     70 H66          0.1460     7.1450   -15.7360 hc         1 NCL       0.031200
     71 H77         -2.1910     7.7430   -16.2280 hc         1 NCL       0.006200
     72 H77A        -2.3210     6.3780   -17.3450 hc         1 NCL       0.006200
     73 H77B        -1.2450     7.7300   -17.7230 hc         1 NCL       0.006200
     74 H69         -0.3560     4.8610   -17.6800 hc         1 NCL       0.014700
     75 H69A         0.7450     6.2260   -17.9370 hc         1 NCL       0.014700
     76 H72          2.0800     5.5370   -15.9910 hc         1 NCL       0.019200
     77 H72A         1.9490     4.1950   -17.1420 hc         1 NCL       0.019200
     78 H75          1.5560     3.4310   -14.8170 h1         1 NCL       0.008950
     79 H75A         0.1060     3.2320   -15.8160 h1         1 NCL       0.008950
@<TRIPOS>BOND
     1     1     2 2   
     2     2     3 1   
     3     2    12 1   
     4     3     4 1   
     5     3    39 1   
     6     3    40 1   
     7     4     5 1   
     8     4    41 1   
     9     4    42 1   
    10     5     6 1   
    11     5    11 1   
    12     6     7 1   
    13     6    43 1   
    14     6    44 1   
    15     7     8 1   
    16     7     9 1   
    17     7    45 1   
    18     8    46 1   
    19     8    47 1   
    20     8    48 1   
    21     9    10 1   
    22     9    49 1   
    23     9    50 1   
    24    10    11 1   
    25    10    51 1   
    26    10    52 1   
    27    11    53 1   
    28    11    54 1   
    29    12    13 1   
    30    12    55 1   
    31    13    14 ar  
    32    13    17 ar  
    33    14    15 ar  
    34    14    56 1   
    35    15    16 ar  
    36    15    19 ar  
    37    16    24 ar  
    38    17    18 ar  
    39    17    57 1   
    40    18    19 ar  
    41    18    58 1   
    42    19    20 ar  
    43    20    21 ar  
    44    20    59 1   
    45    21    22 ar  
    46    21    24 ar  
    47    22    23 ar  
    48    22    60 1   
    49    23    26 ar  
    50    23    61 1   
    51    24    25 ar  
    52    25    26 ar  
    53    25    62 1   
    54    26    27 1   
    55    27    28 1   
    56    27    63 1   
    57    28    29 2   
    58    28    30 1   
    59    30    31 1   
    60    30    64 1   
    61    30    65 1   
    62    31    32 1   
    63    31    66 1   
    64    31    67 1   
    65    32    33 1   
    66    32    38 1   
    67    33    34 1   
    68    33    68 1   
    69    33    69 1   
    70    34    35 1   
    71    34    36 1   
    72    34    70 1   
    73    35    71 1   
    74    35    72 1   
    75    35    73 1   
    76    36    37 1   
    77    36    74 1   
    78    36    75 1   
    79    37    38 1   
    80    37    76 1   
    81    37    77 1   
    82    38    78 1   
    83    38    79 1   
@<TRIPOS>SUBSTRUCTURE
     1 NCL         1 TEMP              0 ****  ****    0 ROOT
