@<TRIPOS>MOLECULE
molecule
   18    19     1     0     0
SMALL
bcc


@<TRIPOS>ATOM
      1 C1           0.0000     0.0000     0.0000 c3         1 NCM      -0.186700
      2 C2           1.5340     0.0000     0.0000 c          1 NCM       0.578100
      3 C3           1.9370     0.0000     1.4670 c3         1 NCM      -0.189400
      4 C4           0.5900    -0.0140     2.2510 c3         1 NCM      -0.080700
      5 C5          -0.0020     1.4100     2.0280 c3         1 NCM      -0.085400
      6 C6          -0.3880     1.4380     0.5310 c3         1 NCM      -0.071400
      7 C7          -0.2910    -0.8730     1.2750 c3         1 NCM      -0.081400
      8 O2           2.2680     0.0050    -0.9600 o          1 NCM      -0.509100
      9 H1          -0.4810    -0.3210    -0.9160 hc         1 NCM       0.091700
     10 H31          2.5170    -0.8850     1.6990 hc         1 NCM       0.071700
     11 H32          2.5010     0.8940     1.7030 hc         1 NCM       0.071700
     12 H4           0.6360    -0.3610     3.2770 hc         1 NCM       0.079700
     13 H51          0.7430     2.1670     2.2410 hc         1 NCM       0.047700
     14 H52         -0.8790     1.5570     2.6470 hc         1 NCM       0.047700
     15 H61          0.1780     2.2000     0.0090 hc         1 NCM       0.052200
     16 H62         -1.4510     1.6100     0.4180 hc         1 NCM       0.052200
     17 H71          0.0880    -1.8820     1.1690 hc         1 NCM       0.056200
     18 H72         -1.3380    -0.8510     1.5500 hc         1 NCM       0.056200
@<TRIPOS>BOND
     1     1     2 1
     2     1     6 1
     3     1     7 1
     4     1     9 1
     5     2     3 1
     6     2     8 2
     7     3     4 1
     8     3    10 1
     9     3    11 1
    10     4     5 1
    11     4     7 1
    12     4    12 1
    13     5     6 1
    14     5    13 1
    15     5    14 1
    16     6    15 1
    17     6    16 1
    18     7    17 1
    19     7    18 1
@<TRIPOS>SUBSTRUCTURE
     1 NCM         1 TEMP              0 ****  ****    0 ROOT
