@<TRIPOS>MOLECULE
NCM
   18    19     1     0     0
SMALL
bcc


@<TRIPOS>ATOM
      1 C1          0.0040    0.0230    0.0190 c3        1 NCM     -0.178700
      2 C2          1.5320    0.0120    0.0170 c         1 NCM      0.571100
      3 C3          1.9520   -0.0300    1.4810 c3        1 NCM     -0.187400
      4 C4          0.6000    0.0000    2.2220 c3        1 NCM     -0.076700
      5 C5          0.0010    1.4060    2.0160 c3        1 NCM     -0.085400
      6 C6         -0.3950    1.4250    0.5270 c3        1 NCM     -0.075400
      7 C7         -0.2870   -0.8470    1.2700 c3        1 NCM     -0.084400
      8 O2          2.2720    0.0330   -0.9600 o         1 NCM     -0.518100
      9 H1         -0.4720   -0.2880   -0.9290 hc        1 NCM      0.091700
     10 H31         2.5140   -0.9710    1.6970 hc        1 NCM      0.075700
     11 H32         2.6000    0.8400    1.7390 hc        1 NCM      0.075700
     12 H4          0.6460   -0.3350    3.2740 hc        1 NCM      0.074700
     13 H51        -0.8930    1.5480    2.6690 hc        1 NCM      0.048700
     14 H52         0.7410    2.2050    2.2550 hc        1 NCM      0.048700
     15 H61        -1.4940    1.5790    0.4040 hc        1 NCM      0.053200
     16 H62         0.1380    2.2280   -0.0340 hc        1 NCM      0.053200
     17 H71         0.0640   -1.8970    1.1650 hc        1 NCM      0.057200
     18 H72        -1.3610   -0.8370    1.5570 hc        1 NCM      0.057200
@<TRIPOS>BOND
     1    1    2 1   
     2    1    6 1   
     3    1    7 1   
     4    1    9 1   
     5    2    3 1   
     6    2    8 2   
     7    3    4 1   
     8    3   10 1   
     9    3   11 1   
    10    4    5 1   
    11    4    7 1   
    12    4   12 1   
    13    5    6 1   
    14    5   13 1   
    15    5   14 1   
    16    6   15 1   
    17    6   16 1   
    18    7   17 1   
    19    7   18 1   
@<TRIPOS>SUBSTRUCTURE
     1 NCM         1 TEMP              0 ****  ****    0 ROOT
