@<TRIPOS>MOLECULE
NCN
   34    35     1     0     0
SMALL
bcc


@<TRIPOS>ATOM
      1 P           0.0000    0.0000    0.0000 p5        1 NCN      0.711900
      2 O1P         1.5470    0.0000    0.0000 o         1 NCN     -0.669167
      3 O2P        -0.6750    0.0000    1.4460 o         1 NCN     -0.669167
      4 O3P        -0.5420    1.1350   -0.9060 o         1 NCN     -0.669167
      5 O5'        -0.4430   -1.4890   -0.6830 os        1 NCN     -0.464200
      6 C5'        -0.6100   -1.6550   -2.1190 c3        1 NCN      0.300400
      7 C4'         0.6680   -1.9700   -2.9780 c3        1 NCN      0.134100
      8 O4'         1.3660   -3.1570   -2.5520 os        1 NCN     -0.354600
      9 C3'         0.3850   -2.2880   -4.5160 c3        1 NCN      0.130100
     10 O3'        -0.2110   -1.2230   -5.4040 oh        1 NCN     -0.548800
     11 C2'         1.8020   -2.6200   -4.9730 c3        1 NCN      0.163100
     12 O2'         2.5760   -1.4330   -5.4490 oh        1 NCN     -0.519800
     13 C1'         2.2540   -3.5560   -3.7280 c3        1 NCN      0.095800
     14 N1          2.0220   -5.0930   -3.8090 na        1 NCN      0.397900
     15 C6          0.6650   -5.5590   -3.7930 ca        1 NCN     -0.214300
     16 C5          0.3940   -6.9540   -3.8390 ca        1 NCN     -0.106000
     17 C4          1.4430   -7.8530   -3.8890 ca        1 NCN     -0.066000
     18 C3          2.7840   -7.4530   -3.9050 ca        1 NCN     -0.077600
     19 C2          3.0700   -6.0730   -3.8630 ca        1 NCN     -0.165300
     20 C7          3.7930   -8.6060   -3.9550 c         1 NCN      0.991200
     21 O7          3.5430   -9.6930   -3.2540 o         1 NCN     -0.862800
     22 O8          4.8670   -8.3990   -4.6820 o         1 NCN     -0.862800
     23 H5'1       -1.0510   -0.7450   -2.5060 h1        1 NCN     -0.028800
     24 H5'2       -1.3180   -2.4600   -2.2750 h1        1 NCN     -0.028800
     25 H4'         1.3480   -1.1290   -2.9180 h1        1 NCN      0.067700
     26 H3'        -0.2220   -3.1830   -4.5800 h1        1 NCN     -0.003300
     27 HO'3       -0.9390   -1.5830   -5.8820 ho        1 NCN      0.366000
     28 H2'         1.7050   -3.2790   -5.8270 h1        1 NCN     -0.027300
     29 HO'2        3.1120   -1.6810   -6.1840 ho        1 NCN      0.372000
     30 H1'         3.2900   -3.3530   -3.4810 h2        1 NCN      0.054700
     31 H6         -0.1490   -4.8520   -3.6830 h4        1 NCN      0.162000
     32 H5         -0.6290   -7.3100   -3.8280 ha        1 NCN      0.111000
     33 H4          1.2170   -8.9120   -3.9220 ha        1 NCN      0.132000
     34 H2          4.1020   -5.7450   -3.8740 h4        1 NCN      0.150000
@<TRIPOS>BOND
     1    1    2 1   
     2    1    3 1   
     3    1    4 1   
     4    1    5 1   
     5    5    6 1   
     6    6    7 1   
     7    6   23 1   
     8    6   24 1   
     9    7    8 1   
    10    7    9 1   
    11    7   25 1   
    12    8   13 1   
    13    9   10 1   
    14    9   11 1   
    15    9   26 1   
    16   10   27 1   
    17   11   12 1   
    18   11   13 1   
    19   11   28 1   
    20   12   29 1   
    21   13   14 1   
    22   13   30 1   
    23   14   15 1   
    24   14   19 2   
    25   15   16 ar  
    26   15   31 1   
    27   16   17 ar  
    28   16   32 1   
    29   17   18 ar  
    30   17   33 1   
    31   18   19 ar  
    32   18   20 1   
    33   19   34 1   
    34   20   21 1   
    35   20   22 1   
@<TRIPOS>SUBSTRUCTURE
     1 NCN         1 TEMP              0 ****  ****    0 ROOT
