@<TRIPOS>MOLECULE
NCN
   34    35     1     0     0
SMALL
bcc


@<TRIPOS>ATOM
      1 P          -1.7410   -1.0410   -1.0910 p5        1 NCN      1.419800
      2 O1P        -2.3600   -0.2130   -2.3600 oh        1 NCN     -0.780400
      3 O2P        -1.9650   -0.1500    0.0670 o         1 NCN     -0.844500
      4 O3P        -2.1480   -2.4580   -1.2030 o         1 NCN     -0.844500
      5 O5'        -0.1510   -0.9190   -1.5170 os        1 NCN     -0.566200
      6 C5'         0.2310   -1.9170   -2.4180 c3        1 NCN      0.160400
      7 C4'         1.7020   -1.7680   -2.8020 c3        1 NCN      0.050100
      8 O4'         2.3720   -3.0230   -2.5060 os        1 NCN     -0.422600
      9 C3'         1.9630   -1.4180   -4.3060 c3        1 NCN      0.372800
     10 O3'         2.9190   -0.5460   -4.5120 o         1 NCN     -0.846500
     11 C2'         2.3710   -2.8410   -4.9170 c3        1 NCN      0.017100
     12 O2'         3.4960   -2.7460   -5.7440 oh        1 NCN     -0.636800
     13 C1'         2.7330   -3.7090   -3.6830 c3        1 NCN      0.192800
     14 N1          2.0650   -5.0560   -3.6950 na        1 NCN      0.021900
     15 C6          0.7150   -5.1600   -3.5270 ca        1 NCN     -0.041300
     16 C5          0.0720   -6.4040   -3.5540 ca        1 NCN     -0.185000
     17 C4          0.8230   -7.5620   -3.7640 ca        1 NCN     -0.032000
     18 C3          2.2060   -7.4560   -3.9420 ca        1 NCN     -0.171600
     19 C2          2.8030   -6.1880   -3.9000 ca        1 NCN     -0.023300
     20 C7          3.0710   -8.6960   -4.1740 c         1 NCN      0.921200
     21 O7          2.4710   -9.8010   -4.2590 o         1 NCN     -0.809800
     22 O8          4.3150   -8.5220   -4.2630 o         1 NCN     -0.809800
     23 H5'1        0.0570   -2.9130   -1.9140 h1        1 NCN      0.020700
     24 H5'2       -0.4370   -1.8510   -3.3220 h1        1 NCN      0.020700
     25 H4'         2.2090   -1.0200   -2.1390 h1        1 NCN      0.097700
     26 H3'         0.9700   -1.1520   -4.7810 h1        1 NCN     -0.038300
     27 HO'3       -2.2670    0.7250   -2.2480 ho        1 NCN      0.420000
     28 H2'         1.5440   -3.2870   -5.5230 h1        1 NCN      0.036700
     29 HO'2        3.8750   -1.8510   -5.5990 ho        1 NCN      0.445000
     30 H1'         3.8420   -3.9170   -3.6230 h2        1 NCN      0.087700
     31 H6          0.1560   -4.2140   -3.3580 h4        1 NCN      0.222000
     32 H5         -1.0160   -6.4390   -3.4000 ha        1 NCN      0.162000
     33 H4          0.3620   -8.5640   -3.7940 ha        1 NCN      0.173000
     34 H2          3.9010   -6.0930   -4.0400 h4        1 NCN      0.211000
@<TRIPOS>BOND
     1    1    2 1   
     2    1    3 1   
     3    1    4 1   
     4    1    5 1   
     5    2   27 1   
     6    5    6 1   
     7    6    7 1   
     8    6   23 1   
     9    6   24 1   
    10    7    8 1   
    11    7    9 1   
    12    7   25 1   
    13    8   13 1   
    14    9   10 1   
    15    9   11 1   
    16    9   26 1   
    17   11   12 1   
    18   11   13 1   
    19   11   28 1   
    20   12   29 1   
    21   13   14 1   
    22   13   30 1   
    23   14   15 1   
    24   14   19 2   
    25   15   16 ar  
    26   15   31 1   
    27   16   17 ar  
    28   16   32 1   
    29   17   18 ar  
    30   17   33 1   
    31   18   19 ar  
    32   18   20 1   
    33   19   34 1   
    34   20   21 1   
    35   20   22 1   
@<TRIPOS>SUBSTRUCTURE
     1 NCN         1 TEMP              0 ****  ****    0 ROOT
