@<TRIPOS>MOLECULE
NCQ
   79    83     1     0     0
SMALL
bcc


@<TRIPOS>ATOM
      1 O39          0.0000     0.0000     0.0000 o          1 NCQ      -0.630600
      2 C9           1.2130     0.0000     0.0000 c          1 NCQ       0.559600
      3 C10          1.9660     0.0000     1.3050 c3         1 NCQ      -0.106900
      4 C13          0.9730     0.0000     2.4690 c3         1 NCQ       0.159300
      5 N16          1.7040     0.1070     3.7370 n3         1 NCQ      -0.540100
      6 C36          2.1540     1.4130     3.9480 c3         1 NCQ       0.150800
      7 C33          3.1120     1.5020     5.1550 c3         1 NCQ      -0.033400
      8 C30          2.3050     1.4630     6.4270 c3         1 NCQ      -0.026400
      9 C27          2.1550     0.0350     6.9900 c3         1 NCQ      -0.026400
     10 C73          1.8840    -0.9950     5.8790 c3         1 NCQ      -0.033400
     11 C11          0.9190    -0.4630     4.8510 c3         1 NCQ       0.150800
     12 N7           1.8870    -0.0050    -1.1670 ns         1 NCQ      -0.038600
     13 C6           1.1920    -0.1190    -2.3730 ca         1 NCQ      -0.076400
     14 C40          1.6740     0.5540    -3.5050 ca         1 NCQ      -0.114500
     15 C42          1.0350     0.4760    -4.6990 ca         1 NCQ      -0.063500
     16 C4           0.0610    -0.8880    -2.4230 ca         1 NCQ      -0.173300
     17 C3          -0.6450    -1.0080    -3.6370 ca         1 NCQ       0.407100
     18 N1          -1.7470    -1.7480    -3.7110 nb         1 NCQ      -0.565000
     19 C44         -0.1390    -0.2970    -4.8150 ca         1 NCQ      -0.163800
     20 C45         -0.8210    -0.3990    -6.0290 ca         1 NCQ      -0.036000
     21 C2          -1.9760    -1.1840    -6.0650 ca         1 NCQ      -0.163800
     22 C87         -2.4250    -1.8710    -4.8500 ca         1 NCQ       0.407100
     23 C47         -2.7180    -1.3360    -7.2550 ca         1 NCQ      -0.063500
     24 C49         -3.8360    -2.1050    -7.2560 ca         1 NCQ      -0.114500
     25 C51         -4.2760    -2.7580    -6.0960 ca         1 NCQ      -0.076400
     26 C85         -3.5930    -2.6560    -4.9120 ca         1 NCQ      -0.173300
     27 N52         -5.4330    -3.5370    -6.1490 ns         1 NCQ      -0.038600
     28 C54         -6.4740    -3.1470    -6.9110 c          1 NCQ       0.559600
     29 O84         -6.3760    -2.1640    -7.6150 o          1 NCQ      -0.630600
     30 C55         -7.7610    -3.9290    -6.8850 c3         1 NCQ      -0.106900
     31 C58         -8.7730    -3.2780    -7.8310 c3         1 NCQ       0.159300
     32 N61        -10.0610    -3.9770    -7.7270 n3         1 NCQ      -0.540100
     33 C75        -10.8530    -3.8140    -8.9620 c3         1 NCQ       0.150800
     34 C72        -11.7200    -5.0370    -9.1260 c3         1 NCQ      -0.033400
     35 C69        -13.1280    -4.8150    -8.5470 c3         1 NCQ      -0.026400
     36 C66        -13.0890    -4.0460    -7.2110 c3         1 NCQ      -0.026400
     37 C29        -11.9710    -4.5080    -6.3100 c3         1 NCQ      -0.033400
     38 C31        -10.7300    -3.6230    -6.5510 c3         1 NCQ       0.150800
     39 H10          2.5890     0.8840     1.3620 hc         1 NCQ       0.036950
     40 H10A         2.5890    -0.8850     1.3630 hc         1 NCQ       0.036950
     41 H13          0.2990     0.8430     2.3680 h1         1 NCQ       0.025950
     42 H13A         0.4030    -0.9210     2.4560 h1         1 NCQ       0.025950
     43 H36          2.6750     1.7530     3.0600 h1         1 NCQ       0.011325
     44 H36A         1.3000     2.0550     4.1290 h1         1 NCQ       0.011325
     45 H33          3.6680     2.4310     5.1080 hc         1 NCQ       0.022950
     46 H33A         3.7970     0.6620     5.1350 hc         1 NCQ       0.022950
     47 H30          1.3190     1.8640     6.2270 hc         1 NCQ       0.011450
     48 H30A         2.7960     2.0800     7.1700 hc         1 NCQ       0.011450
     49 H27          1.3300     0.0190     7.6910 hc         1 NCQ       0.011450
     50 H27A         3.0680    -0.2370     7.5050 hc         1 NCQ       0.011450
     51 H73          2.8200    -1.2400     5.3910 hc         1 NCQ       0.022950
     52 H73A         1.4660    -1.8900     6.3240 hc         1 NCQ       0.022950
     53 H11          0.2960    -1.2690     4.4830 h1         1 NCQ       0.011325
     54 H11A         0.3020     0.3100     5.2950 h1         1 NCQ       0.011325
     55 HN7          2.8860     0.0490    -1.1680 hn         1 NCQ       0.169000
     56 H40          2.5750     1.1490    -3.4250 ha         1 NCQ       0.123500
     57 H42          1.4260     1.0050    -5.5600 ha         1 NCQ       0.108000
     58 H4          -0.2170    -1.5000    -1.5730 ha         1 NCQ       0.134500
     59 H45         -0.6240     0.3100    -6.8240 ha         1 NCQ       0.114000
     60 H47         -2.3980    -0.8410    -8.1640 ha         1 NCQ       0.108000
     61 H49         -4.4040    -2.2110    -8.1720 ha         1 NCQ       0.123500
     62 H85         -3.9520    -3.1700    -4.0290 ha         1 NCQ       0.134500
     63 HN52        -5.5310    -4.3250    -5.5400 hn         1 NCQ       0.169000
     64 H55         -8.1600    -3.9350    -5.8780 hc         1 NCQ       0.036950
     65 H55A        -7.5710    -4.9470    -7.2050 hc         1 NCQ       0.036950
     66 H58         -8.9040    -2.2380    -7.5580 h1         1 NCQ       0.025950
     67 H58A        -8.4090    -3.3420    -8.8490 h1         1 NCQ       0.025950
     68 H75        -11.4770    -2.9320    -8.8820 h1         1 NCQ       0.011325
     69 H75A       -10.1870    -3.7230    -9.8120 h1         1 NCQ       0.011325
     70 H72        -11.2560    -5.8700    -8.6130 hc         1 NCQ       0.022950
     71 H72A       -11.8060    -5.2680   -10.1810 hc         1 NCQ       0.022950
     72 H69        -13.5960    -5.7780    -8.3840 hc         1 NCQ       0.011450
     73 H69A       -13.7150    -4.2490    -9.2610 hc         1 NCQ       0.011450
     74 H66        -14.0320    -4.1890    -6.6990 hc         1 NCQ       0.011450
     75 H66A       -12.9550    -2.9910    -7.4200 hc         1 NCQ       0.011450
     76 H29        -11.7290    -5.5400    -6.5360 hc         1 NCQ       0.022950
     77 H29A       -12.2820    -4.4210    -5.2760 hc         1 NCQ       0.022950
     78 H31        -11.0440    -2.5880    -6.6230 h1         1 NCQ       0.011325
     79 H31A       -10.0510    -3.7340    -5.7130 h1         1 NCQ       0.011325
@<TRIPOS>BOND
     1     1     2 2   
     2     2     3 1   
     3     2    12 1   
     4     3     4 1   
     5     3    39 1   
     6     3    40 1   
     7     4     5 1   
     8     4    41 1   
     9     4    42 1   
    10     5     6 1   
    11     5    11 1   
    12     6     7 1   
    13     6    43 1   
    14     6    44 1   
    15     7     8 1   
    16     7    45 1   
    17     7    46 1   
    18     8     9 1   
    19     8    47 1   
    20     8    48 1   
    21     9    10 1   
    22     9    49 1   
    23     9    50 1   
    24    10    11 1   
    25    10    51 1   
    26    10    52 1   
    27    11    53 1   
    28    11    54 1   
    29    12    13 1   
    30    12    55 1   
    31    13    14 ar  
    32    13    16 ar  
    33    14    15 ar  
    34    14    56 1   
    35    15    19 ar  
    36    15    57 1   
    37    16    17 ar  
    38    16    58 1   
    39    17    18 ar  
    40    17    19 ar  
    41    18    22 ar  
    42    19    20 ar  
    43    20    21 ar  
    44    20    59 1   
    45    21    22 ar  
    46    21    23 ar  
    47    22    26 ar  
    48    23    24 ar  
    49    23    60 1   
    50    24    25 ar  
    51    24    61 1   
    52    25    26 ar  
    53    25    27 1   
    54    26    62 1   
    55    27    28 1   
    56    27    63 1   
    57    28    29 2   
    58    28    30 1   
    59    30    31 1   
    60    30    64 1   
    61    30    65 1   
    62    31    32 1   
    63    31    66 1   
    64    31    67 1   
    65    32    33 1   
    66    32    38 1   
    67    33    34 1   
    68    33    68 1   
    69    33    69 1   
    70    34    35 1   
    71    34    70 1   
    72    34    71 1   
    73    35    36 1   
    74    35    72 1   
    75    35    73 1   
    76    36    37 1   
    77    36    74 1   
    78    36    75 1   
    79    37    38 1   
    80    37    76 1   
    81    37    77 1   
    82    38    78 1   
    83    38    79 1   
@<TRIPOS>SUBSTRUCTURE
     1 NCQ         1 TEMP              0 ****  ****    0 ROOT
