@<TRIPOS>MOLECULE
NCR
   18    18     1     0     0
SMALL
bcc


@<TRIPOS>ATOM
      1 C1           0.0000     0.0000     0.0000 ca         1 NCR      -0.151300
      2 C2           1.3640     0.0000     0.0000 ca         1 NCR       0.038000
      3 C3           2.0660     0.0000     1.2190 ca         1 NCR      -0.538200
      4 C4           1.3470    -0.0110     2.4340 ca         1 NCR       0.256100
      5 C5          -0.0390    -0.0170     2.4050 ca         1 NCR      -0.212000
      6 C6          -0.7050    -0.0120     1.1960 ca         1 NCR       0.015000
      7 C7          -0.7470     0.0050    -1.3090 c3         1 NCR       0.070200
      8 N3           3.4060     0.0060     1.2260 no         1 NCR       1.097200
      9 O1N          4.0080     0.0010     2.2850 o          1 NCR      -0.479000
     10 O2N          4.0210     0.0160     0.1760 o          1 NCR      -0.479000
     11 O4           2.0040    -0.0170     3.6170 oh         1 NCR      -0.443100
     12 H2           1.9060     0.0090    -0.9380 ha         1 NCR       0.142000
     13 H5          -0.6000    -0.0260     3.3320 ha         1 NCR       0.125000
     14 H6          -1.7890    -0.0140     1.1800 ha         1 NCR       0.109000
     15 H71         -0.4670     0.8810    -1.8810 hc         1 NCR       0.012367
     16 H72         -1.8130     0.0250    -1.1160 hc         1 NCR       0.012367
     17 H73         -0.4980    -0.8870    -1.8700 hc         1 NCR       0.012367
     18 HO4          1.6740    -0.7160     4.1570 ho         1 NCR       0.413000
@<TRIPOS>BOND
     1     1     2 ar  
     2     1     6 ar  
     3     1     7 1   
     4     2     3 ar  
     5     2    12 1   
     6     3     4 ar  
     7     3     8 1   
     8     4     5 ar  
     9     4    11 1   
    10     5     6 ar  
    11     5    13 1   
    12     6    14 1   
    13     7    15 1   
    14     7    16 1   
    15     7    17 1   
    16     8     9 1   
    17     8    10 1   
    18    11    18 1   
@<TRIPOS>SUBSTRUCTURE
     1 NCR         1 TEMP              0 ****  ****    0 ROOT
