@<TRIPOS>MOLECULE
molecule
   26    27     1     0     0
SMALL
bcc


@<TRIPOS>ATOM
      1 N1           0.0000     0.0000     0.0000 nb         1 NCT      -0.693000
      2 C1           1.3190     0.0000     0.0000 ca         1 NCT       0.444200
      3 C2           2.0260     0.0000     1.1870 ca         1 NCT      -0.196600
      4 C3           1.3300     0.0120     2.3860 ca         1 NCT      -0.093000
      5 C4          -0.0550     0.0180     2.3460 ca         1 NCT      -0.257300
      6 C5          -0.6930     0.0100     1.1220 ca         1 NCT       0.417200
      7 N2           4.0500    -1.1360     0.3640 n3         1 NCT      -0.664600
      8 C6           3.5320    -0.0060     1.1770 c3         1 NCT       0.184800
      9 C7           4.0800     1.2410     0.4400 c3         1 NCT      -0.078400
     10 C8           5.4850     0.7850    -0.0140 c3         1 NCT      -0.096400
     11 C9           5.4230    -0.7520    -0.0290 c3         1 NCT       0.128800
     12 C10          4.1760    -2.2850     1.2700 c3         1 NCT       0.122100
     13 HC1          1.8540    -0.0090    -0.9420 h4         1 NCT       0.036100
     14 HC3          1.8580     0.0140     3.3320 ha         1 NCT       0.134000
     15 HC4         -0.6300     0.0260     3.2640 ha         1 NCT       0.136000
     16 HC5         -1.7760     0.0130     1.0820 h4         1 NCT       0.021100
     17 HC6          3.9250    -0.0530     2.1850 h1         1 NCT       0.043700
     18 HC71         4.1520     2.0830     1.1180 hc         1 NCT       0.055700
     19 HC72         3.4610     1.4810    -0.4160 hc         1 NCT       0.055700
     20 HC81         5.6980     1.1610    -1.0070 hc         1 NCT       0.048200
     21 HC82         6.2340     1.1230     0.6920 hc         1 NCT       0.048200
     22 HC91         6.1350    -1.1560     0.6810 h1         1 NCT       0.045700
     23 HC92         5.6370    -1.1190    -1.0250 h1         1 NCT       0.045700
     24 H101         4.6410    -1.9660     2.1950 h1         1 NCT       0.036367
     25 H102         4.7860    -3.0480     0.8020 h1         1 NCT       0.036367
     26 H103         3.1920    -2.6880     1.4800 h1         1 NCT       0.036367
@<TRIPOS>BOND
     1     1     2 ar
     2     1     6 ar
     3     2     3 ar
     4     2    13 1
     5     3     4 ar
     6     3     8 1
     7     4     5 ar
     8     4    14 1
     9     5     6 ar
    10     5    15 1
    11     6    16 1
    12     7     8 1
    13     7    11 1
    14     7    12 1
    15     8     9 1
    16     8    17 1
    17     9    10 1
    18     9    18 1
    19     9    19 1
    20    10    11 1
    21    10    20 1
    22    10    21 1
    23    11    22 1
    24    11    23 1
    25    12    24 1
    26    12    25 1
    27    12    26 1
@<TRIPOS>SUBSTRUCTURE
     1 NCT         1 TEMP              0 ****  ****    0 ROOT
