@<TRIPOS>MOLECULE
molecule
   32    32     1     0     0
SMALL
bcc


@<TRIPOS>ATOM
      1 N1           0.0000     0.0000     0.0000 n          1 NCV      -0.360000
      2 C6          -0.7250     0.0050    -1.2730 c3         1 NCV       0.087300
      3 C5           1.3690     0.0000     0.0000 cc         1 NCV       0.082400
      4 C11          2.1260    -0.0020    -1.3020 c3         1 NCV      -0.050200
      5 C12          2.1390     1.4130    -1.8870 c3         1 NCV      -0.074700
      6 C14          2.9370     2.3370    -0.9660 c3         1 NCV       0.148400
      7 O4           2.8510     3.6800    -1.4470 oh         1 NCV      -0.583300
      8 C13          2.7880     1.3880    -3.2710 c3         1 NCV       0.148400
      9 O3           2.6960     2.6840    -3.8640 oh         1 NCV      -0.583300
     10 C3           2.0370     0.0000     1.1730 cd         1 NCV      -0.282400
     11 C4           3.5440     0.0000     1.1930 c3         1 NCV      -0.024900
     12 C2           1.3030     0.0020     2.3840 c          1 NCV       0.710700
     13 O2           1.8850     0.0020     3.4540 o          1 NCV      -0.622500
     14 N2          -0.0450     0.0020     2.3410 ns         1 NCV      -0.559500
     15 C1          -0.6850     0.0010     1.1570 c          1 NCV       0.809500
     16 O1          -1.9010     0.0070     1.1340 o          1 NCV      -0.655500
     17 H6          -1.7800    -0.1630    -1.0880 h1         1 NCV       0.062700
     18 H6A         -0.5920     0.9630    -1.7600 h1         1 NCV       0.062700
     19 H6B         -0.3410    -0.7810    -1.9110 h1         1 NCV       0.062700
     20 H11          3.1440    -0.3300    -1.1280 hc         1 NCV       0.070200
     21 H11A         1.6440    -0.6760    -2.0000 hc         1 NCV       0.070200
     22 H12          1.1220     1.7780    -1.9710 hc         1 NCV       0.077700
     23 H14          3.9740     2.0250    -0.9520 h1         1 NCV       0.022450
     24 H14A         2.5310     2.2870     0.0370 h1         1 NCV       0.022450
     25 HO4          3.0880     4.2770    -0.7570 ho         1 NCV       0.397500
     26 H13          2.2770     0.6670    -3.8970 h1         1 NCV       0.022450
     27 H13A         3.8310     1.1080    -3.1760 h1         1 NCV       0.022450
     28 HO3          2.8450     2.6160    -4.7930 ho         1 NCV       0.397500
     29 H4           3.9140    -0.7540     0.5080 hc         1 NCV       0.050700
     30 H4A          3.9090     0.9740     0.8890 hc         1 NCV       0.050700
     31 H4B          3.8930    -0.2190     2.1950 hc         1 NCV       0.050700
     32 HN2         -0.5700     0.0030     3.1930 hn         1 NCV       0.364500
@<TRIPOS>BOND
     1     3     1 1
     2     1    15 1
     3     1     2 1
     4     2    17 1
     5     2    18 1
     6     2    19 1
     7    10     3 2
     8     3     4 1
     9     5     4 1
    10     4    20 1
    11     4    21 1
    12     8     5 1
    13     5     6 1
    14     5    22 1
    15     6     7 1
    16     6    23 1
    17     6    24 1
    18     7    25 1
    19     8     9 1
    20     8    26 1
    21     8    27 1
    22     9    28 1
    23    11    10 1
    24    10    12 1
    25    11    29 1
    26    11    30 1
    27    11    31 1
    28    13    12 2
    29    12    14 1
    30    14    15 1
    31    14    32 1
    32    15    16 2
@<TRIPOS>SUBSTRUCTURE
     1 NCV         1 TEMP              0 ****  ****    0 ROOT
