@<TRIPOS>MOLECULE
molecule
   50    51     1     0     0
SMALL
bcc


@<TRIPOS>ATOM
      1 S1           0.0000     0.0000     0.0000 s          1 NCW      -0.698400
      2 C7           1.7120     0.0000     0.0000 cs         1 NCW       0.642400
      3 N1           2.3850     0.0000     1.1680 n          1 NCW      -0.474800
      4 C5           1.8580     0.0010     2.5580 c3         1 NCW       0.078700
      5 C4           2.0610     1.4220     3.1110 c3         1 NCW       0.121100
      6 O4           1.4630     1.5230     4.4050 oh         1 NCW      -0.598800
      7 C3           3.5650     1.6940     3.2170 c3         1 NCW       0.122100
      8 O3           3.7760     3.0620     3.5770 oh         1 NCW      -0.603800
      9 C2           4.2350     1.4130     1.8700 c3         1 NCW       0.107100
     10 O2           5.6550     1.4980     2.0150 oh         1 NCW      -0.585800
     11 C6           2.8530    -0.9300     3.2900 c3         1 NCW       0.112400
     12 O1           4.0580    -0.9030     2.5070 os         1 NCW      -0.392600
     13 C1           3.8490    -0.0060     1.4050 c3         1 NCW       0.282500
     14 N2           2.3860    -0.0060    -1.1670 ns         1 NCW      -0.518900
     15 C8           1.6540    -0.0120    -2.4360 c3         1 NCW       0.113000
     16 C9           2.6470    -0.0190    -3.5990 c3         1 NCW      -0.105400
     17 C10          1.8820    -0.0250    -4.9240 c3         1 NCW      -0.076400
     18 C11          2.8770    -0.0310    -6.0860 c3         1 NCW      -0.081400
     19 C12          2.1120    -0.0380    -7.4110 c3         1 NCW      -0.081400
     20 C13          3.1060    -0.0440    -8.5740 c3         1 NCW      -0.081400
     21 C14          2.3410    -0.0510    -9.8990 c3         1 NCW      -0.084400
     22 C15          3.3360    -0.0570   -11.0630 c3         1 NCW      -0.092100
     23 H2           3.3870    -0.0230    -1.1670 hn         1 NCW       0.310500
     24 H5           0.8320    -0.3410     2.6220 h1         1 NCW       0.132700
     25 H1           4.4010    -0.3090     0.5240 h2         1 NCW       0.091700
     26 H4           1.6060     2.1420     2.4420 h1         1 NCW       0.069700
     27 H6C1         3.0480    -0.5580     4.2880 h1         1 NCW       0.071200
     28 H6C2         2.4590    -1.9370     3.3350 h1         1 NCW       0.071200
     29 HA           0.7600     2.1500     4.3790 ho         1 NCW       0.419000
     30 H3           3.9960     1.0510     3.9750 h1         1 NCW       0.074700
     31 HB           4.2230     3.1030     4.4060 ho         1 NCW       0.416000
     32 HC           3.9000     2.1390     1.1390 h1         1 NCW       0.056700
     33 HD           5.9800     2.2210     1.5040 ho         1 NCW       0.410000
     34 H8C1         1.0310    -0.8970    -2.4890 h1         1 NCW       0.076200
     35 H8C2         1.0310     0.8720    -2.4980 h1         1 NCW       0.076200
     36 H9C1         3.2710     0.8660    -3.5460 hc         1 NCW       0.044700
     37 H9C2         3.2700    -0.9030    -3.5370 hc         1 NCW       0.044700
     38 H101         1.2600     0.8590    -4.9860 hc         1 NCW       0.049200
     39 H102         1.2600    -0.9100    -4.9770 hc         1 NCW       0.049200
     40 H111         3.5000    -0.9160    -6.0240 hc         1 NCW       0.041700
     41 H112         3.5000     0.8530    -6.0330 hc         1 NCW       0.041700
     42 H121         1.4890    -0.9230    -7.4640 hc         1 NCW       0.043200
     43 H122         1.4900     0.8460    -7.4730 hc         1 NCW       0.043200
     44 H131         3.7290    -0.9290    -8.5120 hc         1 NCW       0.041200
     45 H132         3.7290     0.8400    -8.5210 hc         1 NCW       0.041200
     46 H141         1.7180    -0.9360    -9.9520 hc         1 NCW       0.040700
     47 H142         1.7180     0.8330    -9.9610 hc         1 NCW       0.040700
     48 H151         3.9630     0.8240   -11.0060 hc         1 NCW       0.033033
     49 H152         3.9540    -0.9450   -11.0050 hc         1 NCW       0.033033
     50 H153         2.7940    -0.0550   -12.0010 hc         1 NCW       0.033033
@<TRIPOS>BOND
     1     1     2 2
     2     2     3 1
     3     2    14 1
     4     3     4 1
     5     3    13 1
     6     4     5 1
     7     4    11 1
     8     5     6 1
     9     5     7 1
    10     7     8 1
    11     7     9 1
    12     9    10 1
    13     9    13 1
    14    11    12 1
    15    12    13 1
    16    14    15 1
    17    15    16 1
    18    16    17 1
    19    17    18 1
    20    18    19 1
    21    19    20 1
    22    20    21 1
    23    21    22 1
    24    14    23 1
    25     4    24 1
    26    13    25 1
    27     5    26 1
    28    11    27 1
    29    11    28 1
    30     6    29 1
    31     7    30 1
    32     8    31 1
    33     9    32 1
    34    10    33 1
    35    15    34 1
    36    15    35 1
    37    16    36 1
    38    16    37 1
    39    17    38 1
    40    17    39 1
    41    18    40 1
    42    18    41 1
    43    19    42 1
    44    19    43 1
    45    20    44 1
    46    20    45 1
    47    21    46 1
    48    21    47 1
    49    22    48 1
    50    22    49 1
    51    22    50 1
@<TRIPOS>SUBSTRUCTURE
     1 NCW         1 TEMP              0 ****  ****    0 ROOT
