@<TRIPOS>MOLECULE
NCZ
   42    44     1     0     0
SMALL
bcc


@<TRIPOS>ATOM
      1 C1         -0.1440   -0.1200    0.2220 ca        1 NCZ     -0.174000
      2 C6          1.2570    0.0060    0.0700 ca        1 NCZ      0.065000
      3 C5          2.0840    0.0970    1.2240 ca        1 NCZ     -0.103000
      4 C7          3.4910    0.2140    1.0600 ca        1 NCZ     -0.043000
      5 C8          4.0630    0.2460   -0.1840 ca        1 NCZ     -0.225000
      6 C9          3.2370    0.1670   -1.3410 ca        1 NCZ      0.187100
      7 C10         1.8590    0.0490   -1.2260 ca        1 NCZ     -0.161600
      8 C11         1.0130   -0.0410   -2.4300 c         1 NCZ      0.673700
      9 O3          0.2000   -0.9120   -2.7380 o         1 NCZ     -0.518000
     10 O4          1.2010    1.0270   -3.2720 os        1 NCZ     -0.427900
     11 C12         0.5280    1.0340   -4.5320 c3        1 NCZ      0.145100
     12 C13        -0.1450    2.4300   -4.6850 c3        1 NCZ      0.151800
     13 C14         0.4130    2.9850   -5.9730 c2        1 NCZ     -0.192200
     14 C15         1.3630    2.1960   -6.4950 c2        1 NCZ     -0.192200
     15 C16         1.6070    0.9670   -5.6520 c3        1 NCZ      0.151800
     16 O6          1.4090   -0.2410   -6.3620 oh        1 NCZ     -0.581300
     17 O5         -1.5450    2.2230   -4.7220 oh        1 NCZ     -0.581300
     18 O2          3.7820    0.1880   -2.6010 oh        1 NCZ     -0.482100
     19 C4          1.4850    0.0660    2.5180 ca        1 NCZ     -0.018300
     20 C3          0.1170   -0.0500    2.6490 ca        1 NCZ     -0.198000
     21 C2         -0.6980   -0.1440    1.4930 ca        1 NCZ      0.147100
     22 O1         -2.0740   -0.2580    1.5350 os        1 NCZ     -0.318900
     23 C17        -2.6650   -0.3540    2.8250 c3        1 NCZ      0.112700
     24 C18         2.3340    0.1600    3.7310 c3        1 NCZ     -0.061800
     25 H1         -0.7930   -0.2140   -0.6630 ha        1 NCZ      0.175000
     26 H7          4.1290    0.2800    1.9560 ha        1 NCZ      0.138000
     27 H8          5.1520    0.3340   -0.3090 ha        1 NCZ      0.138000
     28 H12        -0.2180    0.2010   -4.6250 h1        1 NCZ      0.131700
     29 H13         0.1160    3.0940   -3.8160 h1        1 NCZ      0.067700
     30 H14         0.0410    3.9300   -6.3730 ha        1 NCZ      0.139000
     31 H15         1.9300    2.3580   -7.4130 ha        1 NCZ      0.139000
     32 H16         2.6390    0.9820   -5.2030 h1        1 NCZ      0.067700
     33 H6          1.9930   -0.2120   -7.1290 ho        1 NCZ      0.401000
     34 H5         -1.9430    3.0540   -5.0060 ho        1 NCZ      0.401000
     35 H2          4.7440    0.2650   -2.5110 ho        1 NCZ      0.423000
     36 H3         -0.3410   -0.0720    3.6480 ha        1 NCZ      0.140000
     37 H171       -2.2780   -1.2460    3.3740 h1        1 NCZ      0.045033
     38 H172       -3.7560   -0.4720    2.5990 h1        1 NCZ      0.045033
     39 H173       -2.4840    0.5790    3.4120 h1        1 NCZ      0.045033
     40 H181        1.7160    0.1240    4.6620 hc        1 NCZ      0.048700
     41 H182        2.9090    1.1200    3.7310 hc        1 NCZ      0.048700
     42 H183        3.0610   -0.6900    3.7630 hc        1 NCZ      0.048700
@<TRIPOS>BOND
     1    1    2 ar  
     2    1   21 ar  
     3    1   25 1   
     4    2    3 ar  
     5    2    7 ar  
     6    3    4 ar  
     7    3   19 ar  
     8    4    5 ar  
     9    4   26 1   
    10    5    6 ar  
    11    5   27 1   
    12    6    7 ar  
    13    6   18 1   
    14    7    8 1   
    15    8    9 2   
    16    8   10 1   
    17   10   11 1   
    18   11   12 1   
    19   11   15 1   
    20   11   28 1   
    21   12   13 1   
    22   12   17 1   
    23   12   29 1   
    24   13   14 2   
    25   13   30 1   
    26   14   15 1   
    27   14   31 1   
    28   15   16 1   
    29   15   32 1   
    30   16   33 1   
    31   17   34 1   
    32   18   35 1   
    33   19   20 ar  
    34   19   24 1   
    35   20   21 ar  
    36   20   36 1   
    37   21   22 1   
    38   22   23 1   
    39   23   37 1   
    40   23   38 1   
    41   23   39 1   
    42   24   40 1   
    43   24   41 1   
    44   24   42 1   
@<TRIPOS>SUBSTRUCTURE
     1 NCZ         1 TEMP              0 ****  ****    0 ROOT
