@<TRIPOS>MOLECULE
molecule
   42    44     1     0     0
SMALL
bcc


@<TRIPOS>ATOM
      1 C1           0.0000     0.0000     0.0000 ca         1 NCZ      -0.168000
      2 C6           1.3980     0.0000     0.0000 ca         1 NCZ       0.054000
      3 C5           2.1000     0.0000     1.2300 ca         1 NCZ      -0.090000
      4 C7           3.5060    -0.0050     1.2250 ca         1 NCZ      -0.058000
      5 C8           4.1990    -0.0080     0.0560 ca         1 NCZ      -0.204000
      6 C9           3.5540    -0.0080    -1.1810 ca         1 NCZ       0.173100
      7 C10          2.1590    -0.0040    -1.2500 ca         1 NCZ      -0.141600
      8 C11          1.4720    -0.0030    -2.5470 c          1 NCZ       0.670700
      9 O3           1.1840    -1.0560    -3.0830 o          1 NCZ      -0.515000
     10 O4           1.1600     1.1660    -3.1440 os         1 NCZ      -0.428900
     11 C12          0.4800     1.1670    -4.4270 c3         1 NCZ       0.161100
     12 C13         -0.3500     2.4590    -4.6140 c3         1 NCZ       0.162300
     13 C14         -0.1980     2.8030    -6.0770 c2         1 NCZ      -0.185200
     14 C15          0.8060     2.1610    -6.6100 c2         1 NCZ      -0.185200
     15 C16          1.4920     1.2800    -5.5900 c3         1 NCZ       0.162300
     16 O6           1.7610    -0.0080    -6.1470 oh         1 NCZ      -0.587300
     17 O5          -1.7220     2.2190    -4.2950 oh         1 NCZ      -0.587300
     18 O2           4.2850    -0.0130    -2.3230 oh         1 NCZ      -0.505100
     19 C4           1.3790     0.0050     2.4360 ca         1 NCZ      -0.022300
     20 C3           0.0190     0.0090     2.4120 ca         1 NCZ      -0.217000
     21 C2          -0.6790     0.0090     1.2010 ca         1 NCZ       0.140100
     22 O1          -2.0370     0.0140     1.2060 os         1 NCZ      -0.288900
     23 C17         -2.4440     0.0160     2.5760 c3         1 NCZ       0.103700
     24 C18          2.1110     0.0040     3.7530 c3         1 NCZ      -0.052800
     25 H1          -0.5460     0.0000    -0.9360 ha         1 NCZ       0.161000
     26 H7           4.0440    -0.0050     2.1650 ha         1 NCZ       0.136000
     27 H8           5.2820    -0.0110     0.0860 ha         1 NCZ       0.136000
     28 H12         -0.1440     0.2890    -4.5430 h1         1 NCZ       0.116700
     29 H13          0.0520     3.2540    -3.9980 h1         1 NCZ       0.059200
     30 H14         -0.4560     3.7940    -6.4300 ha         1 NCZ       0.141000
     31 H15          1.1760     2.3580    -7.6090 ha         1 NCZ       0.141000
     32 H16          2.4060     1.7480    -5.2470 h1         1 NCZ       0.059200
     33 H6           2.5550     0.0290    -6.6550 ho         1 NCZ       0.403000
     34 H5          -2.1230     3.0220    -4.0080 ho         1 NCZ       0.403000
     35 H2           4.9500    -0.6780    -2.2670 ho         1 NCZ       0.429000
     36 H3          -0.5310     0.0160     3.3450 ha         1 NCZ       0.145000
     37 H171        -2.0600    -0.8690     3.0690 h1         1 NCZ       0.044700
     38 H172        -3.5260     0.0190     2.6310 h1         1 NCZ       0.044700
     39 H173        -2.0560     0.9000     3.0670 h1         1 NCZ       0.044700
     40 H181         2.7300    -0.8820     3.8220 hc         1 NCZ       0.047700
     41 H182         2.7360     0.8870     3.8190 hc         1 NCZ       0.047700
     42 H183         1.3940     0.0080     4.5650 hc         1 NCZ       0.047700
@<TRIPOS>BOND
     1     1     2 ar
     2     1    21 ar
     3     1    25 1
     4     2     3 ar
     5     2     7 ar
     6     3     4 ar
     7     3    19 ar
     8     4     5 ar
     9     4    26 1
    10     5     6 ar
    11     5    27 1
    12     6     7 ar
    13     6    18 1
    14     7     8 1
    15     8     9 2
    16     8    10 1
    17    10    11 1
    18    11    12 1
    19    11    15 1
    20    11    28 1
    21    12    13 1
    22    12    17 1
    23    12    29 1
    24    13    14 2
    25    13    30 1
    26    14    15 1
    27    14    31 1
    28    15    16 1
    29    15    32 1
    30    16    33 1
    31    17    34 1
    32    18    35 1
    33    19    20 ar
    34    19    24 1
    35    20    21 ar
    36    20    36 1
    37    21    22 1
    38    22    23 1
    39    23    37 1
    40    23    38 1
    41    23    39 1
    42    24    40 1
    43    24    41 1
    44    24    42 1
@<TRIPOS>SUBSTRUCTURE
     1 NCZ         1 TEMP              0 ****  ****    0 ROOT
