@<TRIPOS>MOLECULE
molecule
   28    28     1     0     0
SMALL
bcc


@<TRIPOS>ATOM
      1 OAC          0.0000     0.0000     0.0000 o          1 ND3      -0.829300
      2 CAJ          1.2080     0.0000     0.0000 c          1 ND3       0.869600
      3 OAE          1.8800     0.0060    -1.1620 o          1 ND3      -0.829300
      4 CAO          1.9610     0.0000     1.3060 c3         1 ND3       0.058800
      5 OAH          3.1630     0.7600     1.1630 oh         1 ND3      -0.614800
      6 CAI          1.0890     0.6230     2.3970 c3         1 ND3      -0.104400
      7 CAL          1.8790     0.7070     3.7060 c3         1 ND3       0.145100
      8 OAF          1.0880     1.3660     4.6970 oh         1 ND3      -0.618800
      9 CAM          2.2250    -0.7060     4.1840 c3         1 ND3       0.042100
     10 OAG          3.0730    -0.6300     5.3310 oh         1 ND3      -0.592800
     11 CAK          2.9450    -1.4280     3.0670 c          1 ND3       0.568100
     12 OAD          4.0010    -1.9810     3.2660 o          1 ND3      -0.528100
     13 CAN          2.3110    -1.4410     1.6940 c3         1 ND3      -0.127000
     14 CAB          1.0380    -2.2890     1.7240 c3         1 ND3      -0.072100
     15 CAA          3.2960    -2.0220     0.6770 c3         1 ND3      -0.072100
     16 HAH          2.9970     1.5110     0.6170 ho         1 ND3       0.412000
     17 HAI1         0.7920     1.6200     2.0930 hc         1 ND3       0.063700
     18 HAI2         0.2100     0.0090     2.5480 hc         1 ND3       0.063700
     19 HAL          2.7930     1.2640     3.5380 h1         1 ND3       0.059700
     20 HAF          1.4540     2.2160     4.8780 ho         1 ND3       0.395000
     21 HAM          1.3140    -1.2380     4.4320 h1         1 ND3       0.055700
     22 HAG          2.7890    -1.2590     5.9740 ho         1 ND3       0.393000
     23 HAB1         1.2740    -3.2820     2.0850 hc         1 ND3       0.043533
     24 HAB2         0.3130    -1.8280     2.3840 hc         1 ND3       0.043533
     25 HAB3         0.6260    -2.3570     0.7250 hc         1 ND3       0.043533
     26 HAA1         2.8160    -2.0930    -0.2910 hc         1 ND3       0.043533
     27 HAA2         3.6070    -3.0090     0.9990 hc         1 ND3       0.043533
     28 HAA3         4.1630    -1.3760     0.6040 hc         1 ND3       0.043533
@<TRIPOS>BOND
     1     1     2 1
     2     2     3 1
     3     2     4 1
     4     4     5 1
     5     4     6 1
     6     4    13 1
     7     6     7 1
     8     7     8 1
     9     7     9 1
    10     9    10 1
    11     9    11 1
    12    11    12 2
    13    11    13 1
    14    13    14 1
    15    13    15 1
    16     5    16 1
    17     6    17 1
    18     6    18 1
    19     7    19 1
    20     8    20 1
    21     9    21 1
    22    10    22 1
    23    14    23 1
    24    14    24 1
    25    14    25 1
    26    15    26 1
    27    15    27 1
    28    15    28 1
@<TRIPOS>SUBSTRUCTURE
     1 ND3         1 TEMP              0 ****  ****    0 ROOT
