@<TRIPOS>MOLECULE
ND3
   28    28     1     0     0
SMALL
bcc


@<TRIPOS>ATOM
      1 OAC        -0.2020   -0.0640    0.1970 o         1 ND3     -0.820300
      2 CAJ         1.0400    0.0840    0.0590 c         1 ND3      0.905600
      3 OAE         1.6430    0.2620   -1.0370 o         1 ND3     -0.820300
      4 CAO         1.9510    0.0560    1.3390 c3        1 ND3      0.033800
      5 OAH         3.1830    0.7180    1.0740 oh        1 ND3     -0.637800
      6 CAI         1.2600    0.8270    2.4580 c3        1 ND3     -0.098400
      7 CAL         2.0290    0.7690    3.7690 c3        1 ND3      0.120100
      8 OAF         1.3870    1.5200    4.7850 oh        1 ND3     -0.596800
      9 CAM         2.2010   -0.7000    4.1970 c3        1 ND3      0.005100
     10 OAG         2.8650   -0.8110    5.4410 oh        1 ND3     -0.592800
     11 CAK         2.9250   -1.4500    3.0910 c         1 ND3      0.566100
     12 OAD         3.9930   -2.0220    3.3360 o         1 ND3     -0.562100
     13 CAN         2.2610   -1.4170    1.7310 c3        1 ND3     -0.137000
     14 CAB         0.9830   -2.2420    1.7930 c3        1 ND3     -0.082600
     15 CAA         3.1910   -2.0200    0.6860 c3        1 ND3     -0.082600
     16 HAH         3.2950    0.7220    0.1080 ho        1 ND3      0.433000
     17 HAI1        0.2250    0.4150    2.5840 hc        1 ND3      0.066200
     18 HAI2        1.1650    1.8990    2.1430 hc        1 ND3      0.066200
     19 HAL         3.0380    1.2580    3.6590 h1        1 ND3      0.088700
     20 HAF         0.5050    1.1470    4.8980 ho        1 ND3      0.390000
     21 HAM         1.1920   -1.1700    4.3760 h1        1 ND3      0.084700
     22 HAG         3.8080   -0.6810    5.2730 ho        1 ND3      0.408000
     23 HAB1        1.2080   -3.2780    2.1440 hc        1 ND3      0.043700
     24 HAB2        0.5220   -2.2860    0.7740 hc        1 ND3      0.043700
     25 HAB3        0.2380   -1.7740    2.4800 hc        1 ND3      0.043700
     26 HAA1        3.3030   -3.1170    0.8530 hc        1 ND3      0.043700
     27 HAA2        2.7710   -1.8300   -0.3330 hc        1 ND3      0.043700
     28 HAA3        4.1980   -1.5430    0.7540 hc        1 ND3      0.043700
@<TRIPOS>BOND
     1    1    2 1   
     2    2    3 1   
     3    2    4 1   
     4    4    5 1   
     5    4    6 1   
     6    4   13 1   
     7    5   16 1   
     8    6    7 1   
     9    6   17 1   
    10    6   18 1   
    11    7    8 1   
    12    7    9 1   
    13    7   19 1   
    14    8   20 1   
    15    9   10 1   
    16    9   11 1   
    17    9   21 1   
    18   10   22 1   
    19   11   12 2   
    20   11   13 1   
    21   13   14 1   
    22   13   15 1   
    23   14   23 1   
    24   14   24 1   
    25   14   25 1   
    26   15   26 1   
    27   15   27 1   
    28   15   28 1   
@<TRIPOS>SUBSTRUCTURE
     1 ND3         1 TEMP              0 ****  ****    0 ROOT
