@<TRIPOS>MOLECULE
molecule
    5     4     1     0     0
SMALL
bcc


@<TRIPOS>ATOM
      1 N            0.0000     0.0000     0.0000 n+         1 ND4      -0.891200
      2 H1           1.0060     0.0000     0.0000 hn         1 ND4       0.472800
      3 H2          -0.3350     0.0000     0.9490 hn         1 ND4       0.472800
      4 H3          -0.3350    -0.8220    -0.4740 hn         1 ND4       0.472800
      5 H4          -0.3350     0.8220    -0.4740 hn         1 ND4       0.472800
@<TRIPOS>BOND
     1     1     2 1
     2     1     3 1
     3     1     4 1
     4     1     5 1
@<TRIPOS>SUBSTRUCTURE
     1 ND4         1 TEMP              0 ****  ****    0 ROOT
