@<TRIPOS>MOLECULE
NDB
   30    29     1     0     0
SMALL
bcc


@<TRIPOS>ATOM
      1 CAA          0.0000     0.0000     0.0000 c3         1 NDB      -0.013900
      2 CAB          1.9580     0.0000     1.3850 c3         1 NDB      -0.013900
      3 OAC         -0.0570     5.3020     0.0120 o          1 NDB      -0.632533
      4 OAD          1.9180     6.3410    -0.6380 o          1 NDB      -0.632533
      5 OAE          0.1350    -2.5970     0.0540 oh         1 NDB      -0.601800
      6 OAF          1.9630     5.3030     1.4410 o          1 NDB      -0.632533
      7 CAG          1.5550    -2.4460     0.0970 c3         1 NDB       0.201400
      8 CAH          1.4470     2.4490     0.0300 c3         1 NDB      -0.010400
      9 CAI          1.9590    -1.1980    -0.6930 c3         1 NDB      -0.023200
     10 CAJ          1.9570     1.2000    -0.6920 c3         1 NDB      -0.031200
     11 CAK          1.9560     3.6980    -0.6910 c3         1 NDB      -0.062600
     12 NAL          1.4680     0.0000     0.0000 n4         1 NDB       0.062200
     13 SAM          1.3500     5.1800     0.1650 s6         1 NDB       0.943800
     14 HAA         -0.3610    -0.7920     0.6450 hx         1 NDB       0.080700
     15 HAAA        -0.3610    -0.1630    -1.0080 hx         1 NDB       0.080700
     16 HAAB        -0.3610     0.9550     0.3630 hx         1 NDB       0.080700
     17 HAB          1.5640    -0.8630     1.9080 hx         1 NDB       0.080700
     18 HABA         1.6310     0.9040     1.8840 hx         1 NDB       0.080700
     19 HABB         3.0410    -0.0410     1.3860 hx         1 NDB       0.080700
     20 HOAE        -0.0840    -3.5150     0.0660 ho         1 NDB       0.424000
     21 HAG          2.0250    -3.3180    -0.3410 h1         1 NDB       0.023700
     22 HAGA         1.8760    -2.3410     1.1260 h1         1 NDB       0.023700
     23 HAH          0.3630     2.4490     0.0300 hc         1 NDB       0.038200
     24 HAHA         1.8080     2.4490     1.0510 hc         1 NDB       0.038200
     25 HAI          1.5270    -1.2440    -1.6860 hx         1 NDB       0.078200
     26 HAIA         3.0390    -1.1540    -0.7710 hx         1 NDB       0.078200
     27 HAJ          3.0410     1.2010    -0.6930 hx         1 NDB       0.071200
     28 HAJA         1.5960     1.2000    -1.7140 hx         1 NDB       0.071200
     29 HAK          1.5950     3.6980    -1.7120 h1         1 NDB       0.058200
     30 HAKA         3.0390     3.6990    -0.6910 h1         1 NDB       0.058200
@<TRIPOS>BOND
     1     1    12 1   
     2     1    14 1   
     3     1    15 1   
     4     1    16 1   
     5     2    12 1   
     6     2    17 1   
     7     2    18 1   
     8     2    19 1   
     9     3    13 1   
    10     4    13 1   
    11     5     7 1   
    12     5    20 1   
    13     6    13 1   
    14     7     9 1   
    15     7    21 1   
    16     7    22 1   
    17     8    10 1   
    18     8    11 1   
    19     8    23 1   
    20     8    24 1   
    21     9    12 1   
    22     9    25 1   
    23     9    26 1   
    24    10    12 1   
    25    10    27 1   
    26    10    28 1   
    27    11    13 1   
    28    11    29 1   
    29    11    30 1   
@<TRIPOS>SUBSTRUCTURE
     1 NDB         1 TEMP              0 ****  ****    0 ROOT
