@<TRIPOS>MOLECULE
NDD
   22    23     1     0     0
SMALL
bcc


@<TRIPOS>ATOM
      1 C1          0.0340   -0.0020   -0.0120 ca        1 NDD     -0.111000
      2 C2          1.4110   -0.0010   -0.0320 ca        1 NDD     -0.138600
      3 C3          2.1200   -0.0090    1.1980 ca        1 NDD     -0.109000
      4 C4          1.4530   -0.0160    2.3970 ca        1 NDD     -0.165000
      5 C4A         0.0310   -0.0170    2.4410 ca        1 NDD     -0.052000
      6 C5         -0.6880   -0.0250    3.6670 ca        1 NDD     -0.111000
      7 C6         -2.0640   -0.0250    3.6880 ca        1 NDD     -0.138600
      8 C7         -2.7740   -0.0180    2.4580 ca        1 NDD     -0.109000
      9 C8         -2.1070   -0.0100    1.2580 ca        1 NDD     -0.165000
     10 C8A        -0.6850   -0.0090    1.2150 ca        1 NDD     -0.052000
     11 C2'         2.1830    0.0070   -1.3360 c         1 NDD      0.906200
     12 O1'         1.5390    0.0130   -2.4270 o         1 NDD     -0.853300
     13 O2'         3.4500    0.0080   -1.2910 o         1 NDD     -0.853300
     14 C6'        -2.8370   -0.0340    4.9920 c         1 NDD      0.906200
     15 O3'        -2.1920   -0.0400    6.0820 o         1 NDD     -0.853300
     16 O4'        -4.1040   -0.0350    4.9460 o         1 NDD     -0.853300
     17 H1         -0.5180    0.0040   -0.9650 ha        1 NDD      0.136000
     18 H3          3.2210   -0.0080    1.1460 ha        1 NDD      0.137000
     19 H4          2.0020   -0.0220    3.3490 ha        1 NDD      0.102000
     20 H5         -0.1360   -0.0310    4.6200 ha        1 NDD      0.136000
     21 H7         -3.8740   -0.0180    2.5090 ha        1 NDD      0.137000
     22 H8         -2.6560   -0.0040    0.3060 ha        1 NDD      0.102000
@<TRIPOS>BOND
     1    1    2 ar  
     2    1   10 ar  
     3    1   17 1   
     4    2    3 ar  
     5    2   11 1   
     6    3    4 ar  
     7    3   18 1   
     8    4    5 ar  
     9    4   19 1   
    10    5    6 ar  
    11    5   10 ar  
    12    6    7 ar  
    13    6   20 1   
    14    7    8 ar  
    15    7   14 1   
    16    8    9 ar  
    17    8   21 1   
    18    9   10 ar  
    19    9   22 1   
    20   11   12 1   
    21   11   13 1   
    22   14   15 1   
    23   14   16 1   
@<TRIPOS>SUBSTRUCTURE
     1 NDD         1 TEMP              0 ****  ****    0 ROOT
