@<TRIPOS>MOLECULE
molecule
   22    23     1     0     0
SMALL
bcc


@<TRIPOS>ATOM
      1 C1           0.0000     0.0000     0.0000 ca         1 NDD      -0.111000
      2 C2           1.3840     0.0000     0.0000 ca         1 NDD      -0.126600
      3 C3           2.0970     0.0000     1.2120 ca         1 NDD      -0.097000
      4 C4           1.4450    -0.0040     2.4030 ca         1 NDD      -0.167000
      5 C4A          0.0390    -0.0080     2.4350 ca         1 NDD      -0.049500
      6 C5          -0.6530    -0.0120     3.6560 ca         1 NDD      -0.111000
      7 C6          -2.0370    -0.0160     3.6560 ca         1 NDD      -0.126600
      8 C7          -2.7510    -0.0160     2.4430 ca         1 NDD      -0.097000
      9 C8          -2.0990    -0.0120     1.2530 ca         1 NDD      -0.167000
     10 C8A         -0.6920    -0.0080     1.2210 ca         1 NDD      -0.049500
     11 C2'          2.1190     0.0040    -1.2820 c          1 NDD       0.890200
     12 O1'          1.5070     0.0030    -2.3310 o          1 NDD      -0.858300
     13 O2'          3.4650     0.0080    -1.2870 o          1 NDD      -0.858300
     14 C6'         -2.7720    -0.0200     4.9380 c          1 NDD       0.890200
     15 O3'         -2.1600    -0.0200     5.9870 o          1 NDD      -0.858300
     16 O4'         -4.1180    -0.0240     4.9430 o          1 NDD      -0.858300
     17 H1          -0.5450    -0.0000    -0.9360 ha         1 NDD       0.137000
     18 H3           3.1810     0.0000     1.1960 ha         1 NDD       0.137000
     19 H4           2.0080    -0.0040     3.3280 ha         1 NDD       0.104000
     20 H5          -0.1080    -0.0120     4.5920 ha         1 NDD       0.137000
     21 H7          -3.8340    -0.0190     2.4600 ha         1 NDD       0.137000
     22 H8          -2.6610    -0.0120     0.3270 ha         1 NDD       0.104000
@<TRIPOS>BOND
     1     1     2 ar
     2     1    10 ar
     3     1    17 1
     4     2     3 ar
     5     2    11 1
     6     3     4 ar
     7     3    18 1
     8     4     5 ar
     9     4    19 1
    10     5     6 ar
    11     5    10 ar
    12     6     7 ar
    13     6    20 1
    14     7     8 ar
    15     7    14 1
    16     8     9 ar
    17     8    21 1
    18     9    10 ar
    19     9    22 1
    20    11    12 1
    21    11    13 1
    22    14    15 1
    23    14    16 1
@<TRIPOS>SUBSTRUCTURE
     1 NDD         1 TEMP              0 ****  ****    0 ROOT
