@<TRIPOS>MOLECULE
molecule
   22    23     1     0     0
SMALL
bcc


@<TRIPOS>ATOM
      1 OH2          0.0000     0.0000     0.0000 oh         1 NDH      -0.582800
      2 C1           1.4290     0.0000     0.0000 c3         1 NDH       0.199400
      3 C2           1.9350     0.0000     1.4410 c3         1 NDH       0.173300
      4 OH1          1.2750    -1.0360     2.1710 oh         1 NDH      -0.572800
      5 C3           3.4190    -0.2350     1.4830 c2         1 NDH      -0.207200
      6 C4           4.0080    -1.0500     0.6180 ce         1 NDH      -0.078200
      7 C4A          3.1930    -1.7310    -0.4090 ca         1 NDH      -0.053800
      8 C8A          1.9290    -1.2250    -0.7180 ca         1 NDH      -0.069300
      9 C8           1.1540    -1.8480    -1.6730 ca         1 NDH      -0.100000
     10 C5           3.6690    -2.8630    -1.0660 ca         1 NDH      -0.113000
     11 C6           2.8840    -3.4780    -2.0200 ca         1 NDH      -0.129000
     12 C7           1.6320    -2.9740    -2.3220 ca         1 NDH      -0.127000
     13 HH2         -0.3140     0.8530    -0.2500 ho         1 NDH       0.396000
     14 H1           1.7940     0.8850    -0.5070 h1         1 NDH       0.046700
     15 H2           1.7150     0.9590     1.8940 h1         1 NDH       0.031700
     16 HH1          1.1220    -0.7480     3.0560 ho         1 NDH       0.397000
     17 H3           4.0170     0.2700     2.2320 ha         1 NDH       0.127000
     18 H4           5.0890    -1.1050     0.5760 ha         1 NDH       0.132000
     19 H8           0.1730    -1.4580    -1.9140 ha         1 NDH       0.143000
     20 H5           4.6490    -3.2580    -0.8290 ha         1 NDH       0.131000
     21 H6           3.2490    -4.3600    -2.5340 ha         1 NDH       0.128000
     22 H7           1.0210    -3.4620    -3.0720 ha         1 NDH       0.129000
@<TRIPOS>BOND
     1     1     2 1
     2     1    13 1
     3     2     3 1
     4     2     8 1
     5     2    14 1
     6     3     4 1
     7     3     5 1
     8     3    15 1
     9     4    16 1
    10     5     6 2
    11     5    17 1
    12     6     7 1
    13     6    18 1
    14     7     8 ar
    15     7    10 ar
    16     8     9 ar
    17     9    12 ar
    18     9    19 1
    19    10    11 ar
    20    10    20 1
    21    11    12 ar
    22    11    21 1
    23    12    22 1
@<TRIPOS>SUBSTRUCTURE
     1 NDH         1 TEMP              0 ****  ****    0 ROOT
