@<TRIPOS>MOLECULE
NDH
   22    23     1     0     0
SMALL
bcc


@<TRIPOS>ATOM
      1 OH2         0.0020    0.1780   -0.1630 oh        1 NDH     -0.588800
      2 C1          1.4130    0.0830   -0.1330 c3        1 NDH      0.155400
      3 C2          1.9400    0.3420    1.2960 c3        1 NDH      0.143300
      4 OH1         1.1310   -0.3400    2.2440 oh        1 NDH     -0.593800
      5 C3          3.3820   -0.0290    1.4330 c2        1 NDH     -0.204200
      6 C4          3.9470   -0.9720    0.6670 ce        1 NDH     -0.088200
      7 C4A         3.1840   -1.6860   -0.3440 ca        1 NDH     -0.068800
      8 C8A         1.9080   -1.2130   -0.7070 ca        1 NDH     -0.112300
      9 C8          1.1500   -1.9120   -1.6470 ca        1 NDH     -0.111000
     10 C5          3.6870   -2.8470   -0.9440 ca        1 NDH     -0.114000
     11 C6          2.9230   -3.5380   -1.8830 ca        1 NDH     -0.129000
     12 C7          1.6540   -3.0740   -2.2300 ca        1 NDH     -0.124000
     13 HH2        -0.3420   -0.3450    0.5750 ho        1 NDH      0.415000
     14 H1          1.7620    0.9210   -0.8070 h1        1 NDH      0.090700
     15 H2          1.7790    1.4310    1.5450 h1        1 NDH      0.092700
     16 HH1         1.3510   -1.2780    2.1900 ho        1 NDH      0.406000
     17 H3          3.9390    0.4980    2.2210 ha        1 NDH      0.140000
     18 H4          5.0080   -1.2500    0.7790 ha        1 NDH      0.136000
     19 H8          0.1520   -1.5320   -1.9220 ha        1 NDH      0.152000
     20 H5          4.6870   -3.2140   -0.6680 ha        1 NDH      0.134000
     21 H6          3.3220   -4.4500   -2.3500 ha        1 NDH      0.134000
     22 H7          1.0500   -3.6220   -2.9690 ha        1 NDH      0.135000
@<TRIPOS>BOND
     1    1    2 1   
     2    1   13 1   
     3    2    3 1   
     4    2    8 1   
     5    2   14 1   
     6    3    4 1   
     7    3    5 1   
     8    3   15 1   
     9    4   16 1   
    10    5    6 2   
    11    5   17 1   
    12    6    7 1   
    13    6   18 1   
    14    7    8 ar  
    15    7   10 ar  
    16    8    9 ar  
    17    9   12 ar  
    18    9   19 1   
    19   10   11 ar  
    20   10   20 1   
    21   11   12 ar  
    22   11   21 1   
    23   12   22 1   
@<TRIPOS>SUBSTRUCTURE
     1 NDH         1 TEMP              0 ****  ****    0 ROOT
