@<TRIPOS>MOLECULE
NDJ
   41    41     1     0     0
SMALL
bcc


@<TRIPOS>ATOM
      1 O2          0.0490    1.0680   -0.0200 oh        1 NDJ     -0.577800
      2 C2          1.4060    0.7990   -0.3020 c3        1 NDJ      0.124100
      3 C3          1.9820   -0.2340    0.6840 c3        1 NDJ      0.062100
      4 O3          1.4650   -1.4890    0.2690 oh        1 NDJ     -0.607800
      5 C1          2.1270    2.1570   -0.1710 c3        1 NDJ      0.024000
      6 N5          3.5790    2.1000   -0.1690 n         1 NDJ     -0.364800
      7 C5          4.0960    1.1360    0.8120 c3        1 NDJ      0.022700
      8 C6          5.6290    1.0750    0.9510 c3        1 NDJ      0.135400
      9 O6          6.1070    2.1690    1.6920 oh        1 NDJ     -0.568800
     10 C4          3.5180   -0.2810    0.6030 c3        1 NDJ      0.091100
     11 O4          3.9280   -0.7540   -0.6750 oh        1 NDJ     -0.645800
     12 C7          4.2690    2.2230   -1.3920 c         1 NDJ      0.261400
     13 N8          3.6460    1.4700   -2.5720 n4        1 NDJ     -0.655800
     14 S7          5.5420    3.0560   -1.6260 s         1 NDJ     -0.032400
     15 C9          4.3300    1.6960   -3.8780 c3        1 NDJ      0.100800
     16 C10         3.6280    0.9720   -5.0220 c3        1 NDJ     -0.106400
     17 C11         4.3770    1.2380   -6.3150 c3        1 NDJ     -0.076400
     18 C12         3.7110    0.5400   -7.4730 c3        1 NDJ     -0.100100
     19 H1         -0.4150    0.2170   -0.0340 ho        1 NDJ      0.437000
     20 H2          1.4950    0.3800   -1.3450 h1        1 NDJ      0.026700
     21 H3          1.6590    0.0190    1.7300 h1        1 NDJ      0.087700
     22 H4          1.3910   -2.0510    1.0510 ho        1 NDJ      0.433000
     23 H5          1.7590    2.8520   -0.9760 h1        1 NDJ      0.101200
     24 H6          1.8260    2.6170    0.8180 h1        1 NDJ      0.101200
     25 H7          3.7000    1.5120    1.8100 h1        1 NDJ      0.120700
     26 H8          5.8980    0.1720    1.5670 h1        1 NDJ      0.066200
     27 H9          6.1310    1.0000   -0.0500 h1        1 NDJ      0.066200
     28 H10         6.0520    2.9570    1.1330 ho        1 NDJ      0.416000
     29 H11         3.9200   -0.9680    1.3990 h1        1 NDJ      0.083700
     30 H12         3.5350   -1.6340   -0.7810 ho        1 NDJ      0.448000
     31 H13         3.6760    0.4600   -2.3450 hn        1 NDJ      0.457800
     32 H14         5.3940    1.3320   -3.7870 hx        1 NDJ      0.110700
     33 H15         4.3540    2.8050   -4.0820 hx        1 NDJ      0.110700
     34 H16         2.5690    1.3300   -5.1260 hc        1 NDJ      0.063700
     35 H17         3.5990   -0.1340   -4.8300 hc        1 NDJ      0.063700
     36 H18         4.4120    2.3430   -6.5090 hc        1 NDJ      0.055700
     37 H19         5.4360    0.8810   -6.2160 hc        1 NDJ      0.055700
     38 H20         2.6620    0.9000   -7.6050 hc        1 NDJ      0.050700
     39 H21         4.2750    0.7470   -8.4150 hc        1 NDJ      0.050700
     40 H22         3.6880   -0.5650   -7.3110 hc        1 NDJ      0.050700
     41 H82         2.6580    1.7330   -2.6720 hn        1 NDJ      0.457800
@<TRIPOS>BOND
     1    1    2 1   
     2    1   19 1   
     3    2    3 1   
     4    2    5 1   
     5    2   20 1   
     6    3    4 1   
     7    3   10 1   
     8    3   21 1   
     9    4   22 1   
    10    5    6 1   
    11    5   23 1   
    12    5   24 1   
    13    6    7 1   
    14    6   12 1   
    15    7    8 1   
    16    7   10 1   
    17    7   25 1   
    18    8    9 1   
    19    8   26 1   
    20    8   27 1   
    21    9   28 1   
    22   10   11 1   
    23   10   29 1   
    24   11   30 1   
    25   12   13 1   
    26   12   14 2   
    27   13   15 1   
    28   13   31 1   
    29   13   41 1   
    30   15   16 1   
    31   15   32 1   
    32   15   33 1   
    33   16   17 1   
    34   16   34 1   
    35   16   35 1   
    36   17   18 1   
    37   17   36 1   
    38   17   37 1   
    39   18   38 1   
    40   18   39 1   
    41   18   40 1   
@<TRIPOS>SUBSTRUCTURE
     1 NDJ         1 TEMP              0 ****  ****    0 ROOT
