@<TRIPOS>MOLECULE
molecule
   40    40     1     0     0
SMALL
bcc


@<TRIPOS>ATOM
      1 O2           0.0000     0.0000     0.0000 oh         1 NDJ      -0.599800
      2 C2           1.4300     0.0000     0.0000 c3         1 NDJ       0.127100
      3 C3           1.9400     0.0000     1.4430 c3         1 NDJ       0.130100
      4 O3           1.4380    -1.1520     2.1250 oh         1 NDJ      -0.593800
      5 C1           1.9410     1.2530    -0.7170 c3         1 NDJ       0.072000
      6 N5           3.4050     1.3040    -0.5950 n          1 NDJ      -0.419800
      7 C5           4.0050     1.2200     0.7440 c3         1 NDJ       0.107700
      8 C6           5.5260     1.1270     0.6180 c3         1 NDJ       0.132400
      9 O6           6.0670     2.4320     0.4070 oh         1 NDJ      -0.536800
     10 C4           3.4700    -0.0330     1.4450 c3         1 NDJ       0.118100
     11 O4           3.9230    -1.1980     0.7510 oh         1 NDJ      -0.588800
     12 C7           4.1820     1.4270    -1.6890 cs         1 NDJ       0.577400
     13 N8           3.6350     1.3310    -2.9180 ns         1 NDJ      -0.533900
     14 S7           5.8620     1.7040    -1.5190 s          1 NDJ      -0.580400
     15 C9           4.4520     1.5900    -4.1050 c3         1 NDJ       0.112000
     16 C10          3.5980     1.4140    -5.3610 c3         1 NDJ      -0.103400
     17 C11          4.4520     1.6850    -6.6020 c3         1 NDJ      -0.078400
     18 C12          3.5970     1.5090    -7.8580 c3         1 NDJ      -0.092100
     19 H1          -0.3140    -0.5940    -0.6620 ho         1 NDJ       0.409000
     20 H2           1.7960    -0.8820    -0.5110 h1         1 NDJ       0.071700
     21 H3           1.6000     0.8980     1.9440 h1         1 NDJ       0.048700
     22 H4           1.0540    -0.8890     2.9460 ho         1 NDJ       0.406000
     23 H5           1.6670     1.2090    -1.7640 h1         1 NDJ       0.059200
     24 H6           1.5090     2.1340    -0.2590 h1         1 NDJ       0.059200
     25 H7           3.7350     2.0980     1.3180 h1         1 NDJ       0.067700
     26 H8           5.7810     0.4900    -0.2200 h1         1 NDJ       0.059200
     27 H9           5.9390     0.7080     1.5280 h1         1 NDJ       0.059200
     28 H10          6.7420     2.6000     1.0440 ho         1 NDJ       0.315000
     29 H11          3.8270    -0.0540     2.4670 h1         1 NDJ       0.049700
     30 H12          4.2560    -1.8240     1.3730 ho         1 NDJ       0.410000
     31 H13          2.6750     1.0690    -3.0190 hn         1 NDJ       0.306500
     32 H14          4.8340     2.6030    -4.0670 h1         1 NDJ       0.070200
     33 H15          5.2810     0.8930    -4.1320 h1         1 NDJ       0.070200
     34 H16          3.2160     0.4010    -5.3990 hc         1 NDJ       0.044200
     35 H17          2.7690     2.1110    -5.3340 hc         1 NDJ       0.044200
     36 H18          5.2800     0.9880    -6.6290 hc         1 NDJ       0.047700
     37 H19          4.8330     2.6980    -6.5640 hc         1 NDJ       0.047700
     38 H20          2.7680     2.2060    -7.8320 hc         1 NDJ       0.035033
     39 H21          3.2160     0.4950    -7.8970 hc         1 NDJ       0.035033
     40 H22          4.2020     1.7000    -8.7360 hc         1 NDJ       0.035033
@<TRIPOS>BOND
     1     1     2 1
     2    14    12 2
     3     5     2 1
     4     5     6 1
     5     2     3 1
     6    12     6 1
     7    12    13 1
     8     6     7 1
     9     3     4 1
    10     3    10 1
    11    13    15 1
    12    15    16 1
    13     7    10 1
    14     7     8 1
    15    10    11 1
    16    16    17 1
    17    17    18 1
    18     8     9 1
    19     1    19 1
    20     2    20 1
    21     3    21 1
    22     4    22 1
    23     5    23 1
    24     5    24 1
    25     7    25 1
    26     8    26 1
    27     8    27 1
    28     9    28 1
    29    10    29 1
    30    11    30 1
    31    13    31 1
    32    15    32 1
    33    15    33 1
    34    16    34 1
    35    16    35 1
    36    17    36 1
    37    17    37 1
    38    18    38 1
    39    18    39 1
    40    18    40 1
@<TRIPOS>SUBSTRUCTURE
     1 NDJ         1 TEMP              0 ****  ****    0 ROOT
