@<TRIPOS>MOLECULE
NDL
  100    92     1     0     0
SMALL
bcc


@<TRIPOS>ATOM
      1 OXT         3.5830    0.1160   -2.1240 o         1 NDL     -0.572000
      2 O2         15.3510   10.9030    1.7040 o         1 NDL     -0.431000
      3 C7         14.9710    9.1860    3.3120 c2        1 NDL     -0.208000
      4 C6         14.6690    7.9210    3.5920 c2        1 NDL     -0.165000
      5 C5         20.3090   14.9910    3.8470 c1        1 NDL      0.202000
      6 C4         19.1700   14.4900    4.2870 c2        1 NDL     -0.348000
      7 C3         18.2820   13.6470    3.6150 c1        1 NDL     -0.165000
      8 C8         17.5110   12.9240    3.0510 c1        1 NDL     -0.154000
      9 N9         13.7340    9.3960    1.1860 n         1 NDL     -0.416000
     10 C10        12.2710    4.3750    0.1770 c2        1 NDL     -0.222000
     11 C12        13.2650    4.4670   -0.7130 c2        1 NDL     -0.085000
     12 C11        13.5650    3.4160   -1.7140 c3        1 NDL     -0.146000
     13 C14        15.0580    3.2150   -1.8830 c3        1 NDL     -0.156000
     14 C13        15.3540    2.1570   -2.9140 c3        1 NDL     -0.211000
     15 O16        12.7720    6.4600    1.2610 o         1 NDL     -0.458000
     16 N17        10.8700    5.3900    1.9060 n         1 NDL     -0.407000
     17 C18         8.8560    2.4780   -0.0200 c2        1 NDL     -0.254000
     18 C19         7.8840    1.9490   -0.7730 c2        1 NDL     -0.071000
     19 C20         7.2700    2.6420   -1.9310 c3        1 NDL     -0.142000
     20 C21         5.7640    2.4820   -1.9210 c3        1 NDL     -0.212000
     21 C22         5.1370    3.0860   -3.1790 c3        1 NDL     -0.069000
     22 N23         3.7330    2.8290   -3.3720 n3        1 NDL     -0.341000
     23 O25         9.9440    2.4900    2.1020 o         1 NDL     -0.478000
     24 N26         9.5240    0.4450    1.2100 n         1 NDL     -0.395000
     25 C27         4.9020    0.1180    0.7150 c2        1 NDL     -0.195000
     26 C28         4.9960    0.7570    1.8840 c2        1 NDL     -0.124000
     27 C29         6.0160    0.5430    2.9350 c3        1 NDL     -0.190000
     28 C30         6.4410    1.8810    3.5520 c3        1 NDL     -0.087000
     29 N31         7.6790    1.8790    4.2900 n3        1 NDL     -0.361000
     30 C32        10.1070    4.2490    5.8280 c1        1 NDL     -0.068000
     31 N33         9.5670    4.3150    4.5790 n3        1 NDL     -0.260000
     32 N34        10.6120    4.2870    6.8830 n1        1 NDL     -0.111000
     33 O36         7.0340   -1.0120    0.5500 o         1 NDL     -0.503000
     34 N37         5.2690   -1.9220   -0.5600 n         1 NDL     -0.378000
     35 C38         2.1380   -0.3620   -3.9190 c1        1 NDL     -0.111000
     36 C46         2.9840   -0.7750   -2.8040 c2        1 NDL      0.419000
     37 O47         3.1050   -2.0070   -2.5420 o         1 NDL     -0.572000
     38 C39         1.4410   -0.0350   -4.8370 c1        1 NDL     -0.246000
     39 C40         0.6250    0.3790   -5.9370 c3        1 NDL     -0.037000
     40 C41        -0.3770   -0.7250   -6.3080 c3        1 NDL     -0.060000
     41 N42        -1.1690   -0.3870   -7.4700 n3        1 NDL     -0.336000
     42 C43        -2.3060   -1.1890   -7.8190 c2        1 NDL      0.170000
     43 N44        -3.2210   -0.8310   -8.6950 n2        1 NDL     -0.375000
     44 N45        -2.4310   -2.4650   -7.1890 n3        1 NDL     -0.327000
     45 H6         14.1690    7.2340    2.8900 ha        1 NDL      0.133000
     46 H5         14.9120    7.4790    4.5690 ha        1 NDL      0.133000
     47 H4         18.8660   14.7670    5.3250 ha        1 NDL      0.194000
     48 H3         16.8220   12.2790    2.5470 ha        1 NDL      0.266000
     49 H8         15.4830    9.8410    4.0380 ha        1 NDL      0.143000
     50 HN9        13.2780    8.5330    1.3640 hn        1 NDL      0.238000
     51 H10        13.6050    9.8250    0.3040 hn        1 NDL      0.238000
     52 H121       13.9110    5.3640   -0.7410 ha        1 NDL      0.142000
     53 H122       11.6160    3.4880    0.2380 ha        1 NDL      0.147000
     54 H111       13.1170    3.7250   -2.6990 hc        1 NDL      0.095000
     55 H112       13.0850    2.4420   -1.4260 hc        1 NDL      0.095000
     56 H141       15.5080    2.9190   -0.8980 hc        1 NDL      0.082500
     57 H142       15.5350    4.1840   -2.1870 hc        1 NDL      0.082500
     58 H131       14.9070    1.1780   -2.6140 hc        1 NDL      0.072667
     59 H132       14.9310    2.4450   -3.9070 hc        1 NDL      0.072667
     60 H133       16.4570    2.0220   -3.0250 hc        1 NDL      0.072667
     61 HN17       10.7290    6.0410    2.6390 hn        1 NDL      0.239500
     62 H18         9.2600    3.4880   -0.1990 ha        1 NDL      0.143000
     63 H191       10.3290    4.5560    1.9090 hn        1 NDL      0.239500
     64 H192        7.4590    0.9460   -0.5620 ha        1 NDL      0.161000
     65 H201        7.6880    2.1870   -2.8720 hc        1 NDL      0.089000
     66 H202        7.5390    3.7320   -1.9420 hc        1 NDL      0.089000
     67 H211        5.3400    2.9830   -1.0120 hc        1 NDL      0.106000
     68 H212        5.4860    1.3920   -1.8540 hc        1 NDL      0.106000
     69 H221        5.6870    2.6910   -4.0800 h1        1 NDL      0.069000
     70 H222        5.2880    4.2030   -3.1530 h1        1 NDL      0.069000
     71 H231        3.5720    1.8410   -3.5000 hn        1 NDL      0.156500
     72 H232        3.2190    3.1090   -2.5580 hn        1 NDL      0.156500
     73 HN26        8.9690   -0.1100    0.5970 hn        1 NDL      0.236500
     74 H27         9.8310    0.0200    2.0510 hn        1 NDL      0.236500
     75 H281        4.0950    0.3780   -0.0060 ha        1 NDL      0.196000
     76 H282        4.2480    1.5350    2.1250 ha        1 NDL      0.117000
     77 H291        6.9080    0.0080    2.5060 hc        1 NDL      0.101500
     78 H292        5.5860   -0.1180    3.7360 hc        1 NDL      0.101500
     79 H301        5.6260    2.2310    4.2470 h1        1 NDL      0.088500
     80 H302        6.5360    2.6460    2.7290 h1        1 NDL      0.088500
     81 HN31        8.4550    1.6940    3.6790 hn        1 NDL      0.145000
     82 H331        8.5630    4.2980    4.6080 hn        1 NDL      0.218000
     83 H332        9.9280    3.5940    3.9750 hn        1 NDL      0.218000
     84 HN34        7.6640    1.1800    5.0070 hn        1 NDL      0.145000
     85 HN37        4.3750   -1.7730   -0.9990 hn        1 NDL      0.250000
     86 H38         5.8760   -2.5810   -0.9830 hn        1 NDL      0.250000
     87 H391        0.4310   -3.9170   -6.2270 ha        1 NDL      0.001500
     88 H392        0.2700   -4.1690   -6.8350 ha        1 NDL      0.001500
     89 H401        1.2800    0.6160   -6.8220 hc        1 NDL      0.091000
     90 H402        0.0720    1.3210   -5.6650 hc        1 NDL      0.091000
     91 H411        0.2010   -1.6650   -6.5420 h1        1 NDL      0.091000
     92 H412       -1.0210   -0.9340   -5.4050 h1        1 NDL      0.091000
     93 HN42       -1.3560    0.5930   -7.5360 hn        1 NDL      0.189000
     94 HN44       -3.1500    0.1050   -9.0280 hn        1 NDL      0.138000
     95 H451       -3.0890   -3.0620   -7.6430 hn        1 NDL      0.193500
     96 H452       -1.5570   -2.9200   -7.0220 hn        1 NDL      0.193500
     97 C35         5.8110   -0.9570    0.2340 c2        1 NDL      0.335000
     98 C24         9.4510    1.8100    1.1590 c2        1 NDL      0.342000
     99 C15        12.0050    5.4680    1.1470 c2        1 NDL      0.342000
    100 C1         14.7090    9.8700    2.0200 c2        1 NDL      0.334000
@<TRIPOS>BOND
     1    1   36 1   
     2    2  100 1   
     3    3    4 1   
     4    3   49 1   
     5    3  100 1   
     6    4   45 1   
     7    4   46 1   
     8    5    6 1   
     9    6    7 1   
    10    6   47 1   
    11    7    8 1   
    12    8   48 1   
    13    9   50 1   
    14    9   51 1   
    15    9  100 1   
    16   10   11 1   
    17   10   53 1   
    18   10   99 1   
    19   11   12 1   
    20   11   52 1   
    21   12   13 1   
    22   12   54 1   
    23   12   55 1   
    24   13   14 1   
    25   13   56 1   
    26   13   57 1   
    27   14   58 1   
    28   14   59 1   
    29   14   60 1   
    30   15   99 1   
    31   16   61 1   
    32   16   63 1   
    33   16   99 1   
    34   17   18 1   
    35   17   62 1   
    36   17   98 1   
    37   18   19 1   
    38   18   64 1   
    39   19   20 1   
    40   19   65 1   
    41   19   66 1   
    42   20   21 1   
    43   20   67 1   
    44   20   68 1   
    45   21   22 1   
    46   21   69 1   
    47   21   70 1   
    48   22   71 1   
    49   22   72 1   
    50   23   98 1   
    51   24   73 1   
    52   24   74 1   
    53   24   98 1   
    54   25   26 1   
    55   25   75 1   
    56   25   97 1   
    57   26   27 1   
    58   26   76 1   
    59   27   28 1   
    60   27   77 1   
    61   27   78 1   
    62   28   29 1   
    63   28   79 1   
    64   28   80 1   
    65   29   81 1   
    66   29   84 1   
    67   30   31 1   
    68   30   32 1   
    69   31   82 1   
    70   31   83 1   
    71   33   97 1   
    72   34   85 1   
    73   34   86 1   
    74   34   97 1   
    75   35   36 1   
    76   35   38 1   
    77   36   37 1   
    78   38   39 1   
    79   39   40 1   
    80   39   89 1   
    81   39   90 1   
    82   40   41 1   
    83   40   91 1   
    84   40   92 1   
    85   41   42 1   
    86   41   93 1   
    87   42   43 1   
    88   42   44 1   
    89   43   94 1   
    90   44   95 1   
    91   44   96 1   
    92   87   88 1   
@<TRIPOS>SUBSTRUCTURE
     1 NDL         1 TEMP              0 ****  ****    0 ROOT
