@<TRIPOS>MOLECULE
molecule
   28    29     1     0     0
SMALL
bcc


@<TRIPOS>ATOM
      1 CN9          0.0000     0.0000     0.0000 c3         1 NDM       0.010600
      2 N9           1.4490     0.0000     0.0000 na         1 NDM      -0.041100
      3 C4           2.2750     0.0000     1.1080 cc         1 NDM       0.022500
      4 N3           1.9000    -0.0100     2.4170 nu         1 NDM      -0.242200
      5 C2           2.9530    -0.0720     3.4460 c3         1 NDM       0.469400
      6 N2           2.6680     0.5060     4.7690 nz         1 NDM      -0.819600
      7 N1           4.3030     0.4320     3.0550 n7         1 NDM      -0.896200
      8 C6           4.7030    -0.0080     1.6980 c3         1 NDM       0.474600
      9 O6           5.2720    -1.3150     1.7120 oh         1 NDM      -0.602800
     10 C5           3.5660    -0.0120     0.7280 cd         1 NDM      -0.126600
     11 N7           3.6650    -0.0110    -0.6510 na         1 NDM       0.006900
     12 CN7          4.8820    -0.0150    -1.4370 c3         1 NDM       0.007600
     13 C8           2.2950    -0.0040    -1.2160 cc         1 NDM       0.040400
     14 HN91        -0.3610     0.8040     0.6300 h1         1 NDM       0.098700
     15 HN92        -0.3610    -0.9480     0.3810 h1         1 NDM       0.098700
     16 HN93        -0.3610     0.1440    -1.0110 h1         1 NDM       0.098700
     17 H22          3.0920    -1.1320     3.6230 hx         1 NDM       0.082700
     18 HN21         2.7120     1.5040     4.7130 hn         1 NDM       0.477800
     19 HN22         1.7540     0.2280     5.0650 hn         1 NDM       0.477800
     20 HN11         4.9960     0.3080     3.7670 hn         1 NDM       0.442800
     21 H66          5.4510     0.6850     1.3310 h2         1 NDM       0.108700
     22 HN71         4.6320    -0.0710    -2.4890 h1         1 NDM       0.102367
     23 HN72         5.4380     0.8950    -1.2460 h1         1 NDM       0.102367
     24 HN73         5.4860    -0.8710    -1.1630 h1         1 NDM       0.102367
     25 HC81         2.0100     0.3720    -2.1910 h5         1 NDM       0.292000
     26 HN1          1.2410    -0.7480     2.5700 hn         1 NDM       0.285700
     27 HO1          6.1890    -1.2570     1.9220 ho         1 NDM       0.450000
     28 H23          3.3490     0.1820     5.4280 hn         1 NDM       0.477800
@<TRIPOS>BOND
     1     1     2 1
     2     1    14 1
     3     1    15 1
     4     1    16 1
     5     2     3 1
     6     2    13 2
     7     3     4 1
     8     3    10 2
     9     4     5 1
    10     5     6 1
    11     5     7 1
    12     5    17 1
    13     6    18 1
    14     6    19 1
    15     7     8 1
    16     7    20 1
    17     8     9 1
    18     8    10 1
    19     8    21 1
    20    10    11 1
    21    11    12 1
    22    11    13 1
    23    12    22 1
    24    12    23 1
    25    12    24 1
    26    13    25 1
    27    26     4 1
    28    27     9 1
    29    28     6 1
@<TRIPOS>SUBSTRUCTURE
     1 NDM         1 TEMP              0 ****  ****    0 ROOT
