@<TRIPOS>MOLECULE
molecule
   48    51     1     0     0
SMALL
bcc


@<TRIPOS>ATOM
      1 O22          0.0000     0.0000     0.0000 o          1 NDR      -0.517100
      2 C21          1.2130     0.0000     0.0000 c          1 NDR       0.593300
      3 C20          2.0120     0.0000     1.2880 c3         1 NDR      -0.187400
      4 C19          1.9850    -0.0050    -1.2480 ce         1 NDR      -0.262200
      5 C17          3.2500     0.4160    -1.2510 c2         1 NDR       0.014600
      6 C15          4.0050     0.3710    -2.5670 c3         1 NDR      -0.299200
      7 C14          3.9600     0.9140    -0.0310 c3         1 NDR      -0.047500
      8 C18          3.0580     1.1090     1.1790 c3         1 NDR      -0.101400
      9 C8           4.6810     2.2300    -0.3450 c3         1 NDR      -0.082700
     10 C3           5.5730     2.0430    -1.5820 c3         1 NDR       0.025300
     11 C9           4.6890     1.7210    -2.7900 c3         1 NDR      -0.408400
     12 C13          5.4870     2.6630     0.8750 c3         1 NDR      -0.087400
     13 C6           6.3280     3.9170     0.5840 c3         1 NDR      -0.063400
     14 C2           7.2270     3.5900    -0.5920 c3         1 NDR      -0.070000
     15 C1           6.3080     3.3500    -1.8190 c3         1 NDR      -0.055700
     16 C7           8.0330     2.3240    -0.2920 c3         1 NDR      -0.079100
     17 C5           8.1590     4.7010    -1.0640 c3         1 NDR       0.283900
     18 O12          9.4440     4.5630    -0.4550 oh         1 NDR      -0.595800
     19 C10          8.2710     4.5180    -2.5980 c3         1 NDR      -0.076400
     20 C4           7.3180     3.3480    -2.9700 c3         1 NDR      -0.138400
     21 C11          7.5830     6.0180    -0.7460 c1         1 NDR      -0.188100
     22 C16          7.1060     7.0620    -0.5000 c1         1 NDR      -0.113500
     23 H201         2.3210    -0.9620     1.6780 hc         1 NDR       0.063200
     24 H202         1.6840     0.2670     2.2850 hc         1 NDR       0.063200
     25 H19          1.9220    -0.9850    -1.7060 ha         1 NDR       0.146000
     26 H151         3.7310     1.1370    -3.2830 hc         1 NDR       0.158200
     27 H152         3.8050    -0.5520    -3.0990 hc         1 NDR       0.158200
     28 H181         2.5300     2.0460     1.3060 hc         1 NDR       0.054200
     29 H182         3.8900     1.4070     1.8050 hc         1 NDR       0.054200
     30 H91          5.3540     1.5850    -1.9460 hc         1 NDR       0.151200
     31 H92          5.2400     2.0380    -3.6670 hc         1 NDR       0.151200
     32 H131         6.0720     1.7530     0.9390 hc         1 NDR       0.054200
     33 H132         4.7370     2.6830     1.6560 hc         1 NDR       0.054200
     34 H61          7.1450     4.2840     1.1950 hc         1 NDR       0.073200
     35 H62          5.5650     4.5620     0.1650 hc         1 NDR       0.073200
     36 H71          7.3820     1.4940    -0.0460 hc         1 NDR       0.038367
     37 H72          8.3900     2.0140    -1.2670 hc         1 NDR       0.038367
     38 H73          8.8130     2.2410     0.4550 hc         1 NDR       0.038367
     39 H12          9.8450     5.3960    -0.2720 ho         1 NDR       0.414000
     40 H101         9.1240     4.3390    -3.2410 hc         1 NDR       0.065700
     41 H102         7.6460     5.3330    -2.9420 hc         1 NDR       0.065700
     42 H41          6.4930     3.3900    -3.6710 hc         1 NDR       0.052700
     43 H42          7.8250     2.5200    -3.4510 hc         1 NDR       0.052700
     44 H16          6.8550     8.0380    -0.1020 ha         1 NDR       0.170500
     45 H23          4.7120     0.1800     0.2340 hc         1 NDR       0.067700
     46 H24          3.9400     2.9900    -0.5620 hc         1 NDR       0.083700
     47 H25          6.2810     1.2410    -1.4130 hc         1 NDR       0.022700
     48 H26          5.6060     4.1670    -1.9300 hc         1 NDR       0.092700
@<TRIPOS>BOND
     1     1     2 2
     2     2     3 1
     3     2     4 1
     4     3     8 1
     5     3    23 1
     6     3    24 1
     7     4     5 2
     8     4    25 1
     9     5     6 1
    10     5     7 1
    11     6    11 1
    12     6    26 1
    13     6    27 1
    14     7     8 1
    15     7     9 1
    16     8    28 1
    17     8    29 1
    18     9    10 1
    19     9    12 1
    20    10    11 1
    21    10    15 1
    22    11    30 1
    23    11    31 1
    24    12    13 1
    25    12    32 1
    26    12    33 1
    27    13    14 1
    28    13    34 1
    29    13    35 1
    30    14    15 1
    31    14    16 1
    32    14    17 1
    33    15    20 1
    34    16    36 1
    35    16    37 1
    36    16    38 1
    37    17    18 1
    38    17    19 1
    39    17    21 1
    40    18    39 1
    41    19    20 1
    42    19    40 1
    43    19    41 1
    44    20    42 1
    45    20    43 1
    46    21    22 3
    47    22    44 1
    48     7    45 1
    49     9    46 1
    50    10    47 1
    51    15    48 1
@<TRIPOS>SUBSTRUCTURE
     1 NDR         1 TEMP              0 ****  ****    0 ROOT
