@<TRIPOS>MOLECULE
NDR
   48    51     1     0     0
SMALL
bcc


@<TRIPOS>ATOM
      1 O22        -0.0620   -0.4210    0.1530 o         1 NDR     -0.535100
      2 C21         1.1430   -0.1510    0.0910 c         1 NDR      0.569300
      3 C20         2.0020   -0.0350    1.3180 c3        1 NDR     -0.182400
      4 C19         1.8450    0.0380   -1.1850 ce        1 NDR     -0.266200
      5 C17         3.1020    0.5080   -1.2690 c2        1 NDR     -0.032400
      6 C15         3.7920    0.5650   -2.5900 c3        1 NDR     -0.054200
      7 C14         3.9010    0.9050   -0.0650 c3        1 NDR     -0.034500
      8 C18         3.0240    1.0690    1.1720 c3        1 NDR     -0.071400
      9 C8          4.6970    2.1930   -0.3160 c3        1 NDR     -0.052700
     10 C3          5.5250    2.0580   -1.6020 c3        1 NDR     -0.050700
     11 C9          4.5930    1.8350   -2.7810 c3        1 NDR     -0.073400
     12 C13         5.5660    2.5370    0.8890 c3        1 NDR     -0.073400
     13 C6          6.4930    3.7200    0.6620 c3        1 NDR     -0.066400
     14 C2          7.3190    3.5270   -0.5980 c3        1 NDR     -0.072000
     15 C1          6.3400    3.3210   -1.7740 c3        1 NDR     -0.060700
     16 C7          8.2910    2.3730   -0.4120 c3        1 NDR     -0.080100
     17 C5          8.1380    4.7630   -1.1050 c3        1 NDR      0.235900
     18 O12         9.4720    4.7670   -0.6120 oh        1 NDR     -0.580800
     19 C10         8.2390    4.5420   -2.6430 c3        1 NDR     -0.067400
     20 C4          7.2040    3.4820   -3.0180 c3        1 NDR     -0.073400
     21 C11         7.4770    6.0170   -0.7950 c1        1 NDR     -0.164100
     22 C16         6.9430    7.0610   -0.5580 c1        1 NDR     -0.135500
     23 H201        1.3590    0.1560    2.2170 hc        1 NDR      0.071200
     24 H202        2.5150   -1.0220    1.4720 hc        1 NDR      0.071200
     25 H19         1.2720   -0.2440   -2.0840 ha        1 NDR      0.148000
     26 H151        4.4810   -0.3220   -2.6540 hc        1 NDR      0.056200
     27 H152        3.0480    0.4680   -3.4250 hc        1 NDR      0.056200
     28 H181        2.4970    2.0580    1.1260 hc        1 NDR      0.050700
     29 H182        3.6770    1.0760    2.0850 hc        1 NDR      0.050700
     30 H91         5.1940    1.7610   -3.7250 hc        1 NDR      0.048200
     31 H92         3.9010    2.7110   -2.8900 hc        1 NDR      0.048200
     32 H131        4.8990    2.7840    1.7580 hc        1 NDR      0.042200
     33 H132        6.1700    1.6370    1.1800 hc        1 NDR      0.042200
     34 H61         7.1700    3.8330    1.5490 hc        1 NDR      0.046200
     35 H62         5.8860    4.6600    0.5760 hc        1 NDR      0.046200
     36 H71         7.7550    1.4180   -0.2020 hc        1 NDR      0.040367
     37 H72         8.9160    2.2430   -1.3290 hc        1 NDR      0.040367
     38 H73         8.9730    2.5870    0.4470 hc        1 NDR      0.040367
     39 H12         9.4190    4.8760    0.3450 ho        1 NDR      0.405000
     40 H101        8.0490    5.5010   -3.1820 hc        1 NDR      0.063200
     41 H102        9.2750    4.2010   -2.8910 hc        1 NDR      0.063200
     42 H41         6.5920    3.8060   -3.8950 hc        1 NDR      0.046700
     43 H42         7.7010    2.5160   -3.2850 hc        1 NDR      0.046700
     44 H16         6.4690    7.9860   -0.3470 ha        1 NDR      0.166500
     45 H23         4.6360    0.0690    0.1270 hc        1 NDR      0.063700
     46 H24         3.9630    3.0350   -0.4660 hc        1 NDR      0.055700
     47 H25         6.2080    1.1690   -1.5160 hc        1 NDR      0.056700
     48 H26         5.6150    4.1890   -1.7630 hc        1 NDR      0.055700
@<TRIPOS>BOND
     1    1    2 2   
     2    2    3 1   
     3    2    4 1   
     4    3    8 1   
     5    3   23 1   
     6    3   24 1   
     7    4    5 2   
     8    4   25 1   
     9    5    6 1   
    10    5    7 1   
    11    6   11 1   
    12    6   26 1   
    13    6   27 1   
    14    7    8 1   
    15    7    9 1   
    16    7   45 1   
    17    8   28 1   
    18    8   29 1   
    19    9   10 1   
    20    9   12 1   
    21    9   46 1   
    22   10   11 1   
    23   10   15 1   
    24   10   47 1   
    25   11   30 1   
    26   11   31 1   
    27   12   13 1   
    28   12   32 1   
    29   12   33 1   
    30   13   14 1   
    31   13   34 1   
    32   13   35 1   
    33   14   15 1   
    34   14   16 1   
    35   14   17 1   
    36   15   20 1   
    37   15   48 1   
    38   16   36 1   
    39   16   37 1   
    40   16   38 1   
    41   17   18 1   
    42   17   19 1   
    43   17   21 1   
    44   18   39 1   
    45   19   20 1   
    46   19   40 1   
    47   19   41 1   
    48   20   42 1   
    49   20   43 1   
    50   21   22 3   
    51   22   44 1   
@<TRIPOS>SUBSTRUCTURE
     1 NDR         1 TEMP              0 ****  ****    0 ROOT
