@<TRIPOS>MOLECULE
NDS
   29    28     1     0     0
SMALL
bcc


@<TRIPOS>ATOM
      1 O3           0.0000     0.0000     0.0000 o          1 NDS      -0.636867
      2 S1           1.4550     0.0000     0.0000 s6         1 NDS       0.954800
      3 O1           1.9440     0.0000     1.3700 o          1 NDS      -0.636867
      4 O2           1.9430     1.1810    -0.6940 o          1 NDS      -0.636867
      5 C4           2.0540    -1.4860    -0.8500 c3         1 NDS      -0.062600
      6 C3           1.5420    -2.7310    -0.1230 c3         1 NDS      -0.006400
      7 C2           2.0470    -3.9860    -0.8400 c3         1 NDS      -0.030200
      8 N1           1.5550    -5.1800    -0.1420 n4         1 NDS       0.053200
      9 C1           2.0460    -5.1770     1.2420 c3         1 NDS      -0.002900
     10 C7           0.0860    -5.1770    -0.1400 c3         1 NDS      -0.002900
     11 C5           2.0400    -6.3840    -0.8300 c3         1 NDS      -0.010200
     12 C6           1.5270    -7.6290    -0.1030 c3         1 NDS      -0.019100
     13 H41          1.6910    -1.4900    -1.8710 h1         1 NDS       0.049700
     14 H42          3.1370    -1.4890    -0.8510 h1         1 NDS       0.049700
     15 H31          1.9040    -2.7280     0.8980 hc         1 NDS       0.044700
     16 H32          0.4580    -2.7280    -0.1210 hc         1 NDS       0.044700
     17 H21          1.6840    -3.9880    -1.8610 hx         1 NDS       0.070200
     18 H22          3.1300    -3.9890    -0.8410 hx         1 NDS       0.070200
     19 H11          1.3660    -4.6080     1.8650 hx         1 NDS       0.076700
     20 H12          2.1040    -6.1950     1.6070 hx         1 NDS       0.076700
     21 H13          3.0300    -4.7240     1.2750 hx         1 NDS       0.076700
     22 H71         -0.2780    -6.1950    -0.0740 hx         1 NDS       0.076700
     23 H72         -0.2760    -4.7230    -1.0540 hx         1 NDS       0.076700
     24 H73         -0.2720    -4.6090     0.7110 hx         1 NDS       0.076700
     25 H51          3.1230    -6.3870    -0.8310 hx         1 NDS       0.072700
     26 H52          1.6770    -6.3870    -1.8510 hx         1 NDS       0.072700
     27 H61          0.9270    -7.3300     0.7480 hc         1 NDS       0.034700
     28 H62          0.9230    -8.2200    -0.7810 hc         1 NDS       0.034700
     29 H63          2.3690    -8.2200     0.2380 hc         1 NDS       0.034700
@<TRIPOS>BOND
     1     1     2 1   
     2     2     3 1   
     3     2     4 1   
     4     2     5 1   
     5     5     6 1   
     6     5    13 1   
     7     5    14 1   
     8     6     7 1   
     9     6    15 1   
    10     6    16 1   
    11     7     8 1   
    12     7    17 1   
    13     7    18 1   
    14     8     9 1   
    15     8    10 1   
    16     8    11 1   
    17     9    19 1   
    18     9    20 1   
    19     9    21 1   
    20    10    22 1   
    21    10    23 1   
    22    10    24 1   
    23    11    12 1   
    24    11    25 1   
    25    11    26 1   
    26    12    27 1   
    27    12    28 1   
    28    12    29 1   
@<TRIPOS>SUBSTRUCTURE
     1 NDS         1 TEMP              0 ****  ****    0 ROOT
