@<TRIPOS>MOLECULE
molecule
   45    46     1     0     0
SMALL
bcc


@<TRIPOS>ATOM
      1 C1           0.0000     0.0000     0.0000 c3         1 NDV      -0.113100
      2 N1           4.9280    -2.9640     2.3830 ns         1 NDV      -0.499900
      3 S1           2.1790     0.0000     1.7190 ss         1 NDV      -0.405200
      4 C2           0.9160    -2.1240    -1.1200 c          1 NDV       0.898600
      5 N2           7.2690    -4.9970     4.3420 nz         1 NDV      -0.794600
      6 O2           0.3270    -1.7750    -2.2740 o          1 NDV      -0.813300
      7 C3           5.7290    -3.3790     3.3830 c          1 NDV       0.648100
      8 N3           2.8010    -2.1230     0.3950 n7         1 NDV      -0.779200
      9 O3           5.5400    -2.9860     4.5160 o          1 NDV      -0.616100
     10 C4           6.8610    -4.3330     3.0960 c3         1 NDV       0.085800
     11 C5           8.0290    -3.5690     2.5280 ca         1 NDV      -0.168300
     12 C6           1.5310     0.0000     0.0000 c3         1 NDV       0.103100
     13 C7           8.8720    -2.8680     3.3700 ca         1 NDV      -0.115000
     14 C8           9.9480    -2.1730     2.8490 ca         1 NDV      -0.104500
     15 C9          10.1720    -2.1680     1.4850 ca         1 NDV      -0.076000
     16 C10          9.3260    -2.8650     0.6420 ca         1 NDV      -0.104500
     17 C11          8.2540    -3.5650     1.1630 ca         1 NDV      -0.115000
     18 C12          2.0730    -1.3170    -0.5890 c3         1 NDV       0.043500
     19 C13          3.4860    -1.2550     1.3920 c3         1 NDV       0.235600
     20 C14          3.8280    -2.0370     2.6630 c3         1 NDV      -0.001300
     21 C15          2.6190    -2.8140     3.1140 c          1 NDV       0.573900
     22 C16          2.0670     1.2040    -0.7790 c3         1 NDV      -0.113100
     23 H1          -0.3610    -0.0740    -1.0190 hc         1 NDV       0.064867
     24 H1A         -0.3610     0.9190     0.4450 hc         1 NDV       0.064867
     25 H1B         -0.3610    -0.8450     0.5740 hc         1 NDV       0.064867
     26 HN1          5.0840    -3.2890     1.4500 hn         1 NDV       0.333500
     27 HN3          3.4780    -2.6910    -0.0740 hn         1 NDV       0.339800
     28 H4           6.5330    -5.0770     2.3800 hx         1 NDV       0.123700
     29 H7           8.6960    -2.8720     4.4380 ha         1 NDV       0.133500
     30 H8          10.4880    -1.6750     3.6450 ha         1 NDV       0.156500
     31 H9          11.0130    -1.6220     1.0770 ha         1 NDV       0.155000
     32 H10          9.5030    -2.8610    -0.4270 ha         1 NDV       0.156500
     33 H11          7.5910    -4.1110     0.5030 ha         1 NDV       0.133500
     34 H12          2.7430    -1.0800    -1.4070 h1         1 NDV       0.032700
     35 H13          4.3660    -0.7920     0.9610 h2         1 NDV       0.042700
     36 H14          4.0320    -1.2560     3.3850 h1         1 NDV       0.102700
     37 H15          1.6860    -2.3850     2.7700 h4         1 NDV       0.088200
     38 H16          2.5970     1.1070     0.1610 hc         1 NDV       0.064867
     39 H16A         1.3910     2.0490    -0.8370 hc         1 NDV       0.064867
     40 H16B         2.6480     0.9570    -1.6590 hc         1 NDV       0.064867
     41 O4           2.6700    -4.0180     3.1950 o          1 NDV      -0.528100
     42 HN2          8.1290    -5.4880     4.1920 hn         1 NDV       0.460467
     43 H22          6.5600    -5.6450     4.6220 hn         1 NDV       0.460467
     44 O1           0.4970    -3.0650    -0.4880 o          1 NDV      -0.813300
     45 HN2A         7.3970    -4.3110     5.0590 hn         1 NDV       0.460467
@<TRIPOS>BOND
     1     1    12 1
     2     1    23 1
     3     1    24 1
     4     1    25 1
     5    20     2 1
     6     7     2 1
     7     2    26 1
     8     4    44 1
     9     3    12 1
    10     3    19 1
    11    18     4 1
    12     6     4 1
    13     5    10 1
    14     5    42 1
    15     5    45 1
    16     9     7 2
    17     7    10 1
    18    19     8 1
    19     8    18 1
    20     8    27 1
    21    10    11 1
    22    10    28 1
    23    21    41 2
    24    17    11 ar
    25    11    13 ar
    26    12    22 1
    27    12    18 1
    28    13    14 ar
    29    13    29 1
    30    15    14 ar
    31    14    30 1
    32    16    15 ar
    33    15    31 1
    34    17    16 ar
    35    16    32 1
    36    17    33 1
    37    18    34 1
    38    20    19 1
    39    19    35 1
    40    20    21 1
    41    20    36 1
    42    21    37 1
    43    22    38 1
    44    22    39 1
    45    22    40 1
    46    43     5 1
@<TRIPOS>SUBSTRUCTURE
     1 NDV         1 TEMP              0 ****  ****    0 ROOT
