@<TRIPOS>MOLECULE
NDY
   38    39     1     0     0
SMALL
bcc


@<TRIPOS>ATOM
      1 CAK        -0.6080   -0.0410    0.2070 ca        1 NDY     -0.128000
      2 CAI         0.6180    0.3140   -0.3520 ca        1 NDY     -0.138000
      3 CAH         1.7310    0.5140    0.4650 ca        1 NDY     -0.148000
      4 CAJ         1.6140    0.3550    1.8450 ca        1 NDY     -0.138000
      5 CAL         0.3890   -0.0010    2.4080 ca        1 NDY     -0.128000
      6 CAQ        -0.7330   -0.2000    1.5940 ca        1 NDY     -0.057300
      7 CAM        -2.0500   -0.5440    2.1940 c3        1 NDY     -0.041100
      8 CAR        -2.6510   -1.8330    1.6150 c3        1 NDY      0.199300
      9 OAC        -2.3980   -2.8570    2.5770 oh        1 NDY     -0.617800
     10 CAP        -4.1130   -1.6660    1.3230 c2        1 NDY     -0.216400
     11 CAG        -5.0740   -2.0040    2.1950 c2        1 NDY     -0.082200
     12 CAU        -6.5450   -1.8440    1.9700 c3        1 NDY      0.039000
     13 CAO        -7.1270   -0.9550    3.1390 c         1 NDY      0.908600
     14 OAB        -7.6700   -1.5950    4.0810 o         1 NDY     -0.813300
     15 OAA        -7.0230    0.2930    3.0540 o         1 NDY     -0.813300
     16 OAF        -7.1340   -3.1430    2.0040 oh        1 NDY     -0.634800
     17 CAN        -6.8940   -1.2090    0.6260 c3        1 NDY     -0.098400
     18 CAS        -5.8620   -1.5160   -0.4430 c3        1 NDY      0.106100
     19 OAD        -6.1760   -0.9030   -1.6890 oh        1 NDY     -0.625800
     20 CAT        -4.4670   -1.0400    0.0090 c3        1 NDY      0.165300
     21 OAE        -3.4840   -1.3550   -0.9760 oh        1 NDY     -0.622800
     22 HAK        -1.4890   -0.2090   -0.4370 ha        1 NDY      0.145500
     23 HAI         0.7080    0.4350   -1.4410 ha        1 NDY      0.118500
     24 HAH         2.6970    0.7940    0.0220 ha        1 NDY      0.116000
     25 HAJ         2.4890    0.5080    2.4920 ha        1 NDY      0.118500
     26 HAL         0.3020   -0.1300    3.4970 ha        1 NDY      0.145500
     27 HAM1       -2.7630    0.3040    2.0030 hc        1 NDY      0.069700
     28 HAM2       -1.9560   -0.6640    3.3070 hc        1 NDY      0.069700
     29 HAR        -2.1170   -2.1220    0.6620 h1        1 NDY      0.058700
     30 HAC        -2.9950   -3.5860    2.3740 ho        1 NDY      0.404000
     31 HAG        -4.8190   -2.4330    3.1800 ha        1 NDY      0.137000
     32 HAT        -4.4750    0.0840    0.1250 h1        1 NDY      0.042700
     33 HAF        -7.5720   -3.2310    2.8680 ho        1 NDY      0.431000
     34 HAN1       -6.9660   -0.0970    0.7750 hc        1 NDY      0.067200
     35 HAN2       -7.8940   -1.5860    0.2910 hc        1 NDY      0.067200
     36 HAS        -5.8330   -2.6170   -0.6750 h1        1 NDY      0.085700
     37 HAD        -6.4360    0.0060   -1.5010 ho        1 NDY      0.399000
     38 HAE        -3.9330   -1.3220   -1.8310 ho        1 NDY      0.409000
@<TRIPOS>BOND
     1    1    2 ar  
     2    1    6 ar  
     3    1   22 1   
     4    2    3 ar  
     5    2   23 1   
     6    3    4 ar  
     7    3   24 1   
     8    4    5 ar  
     9    4   25 1   
    10    5    6 ar  
    11    5   26 1   
    12    6    7 1   
    13    7    8 1   
    14    7   27 1   
    15    7   28 1   
    16    8    9 1   
    17    8   10 1   
    18    8   29 1   
    19    9   30 1   
    20   10   11 2   
    21   10   20 1   
    22   11   12 1   
    23   11   31 1   
    24   12   13 1   
    25   12   16 1   
    26   12   17 1   
    27   13   14 1   
    28   13   15 1   
    29   16   33 1   
    30   17   18 1   
    31   17   34 1   
    32   17   35 1   
    33   18   19 1   
    34   18   20 1   
    35   18   36 1   
    36   19   37 1   
    37   20   21 1   
    38   20   32 1   
    39   21   38 1   
@<TRIPOS>SUBSTRUCTURE
     1 NDY         1 TEMP              0 ****  ****    0 ROOT
