@<TRIPOS>MOLECULE
molecule
   38    39     1     0     0
SMALL
bcc


@<TRIPOS>ATOM
      1 CAK          0.0000     0.0000     0.0000 ca         1 NDY      -0.119500
      2 CAI          1.3830     0.0000     0.0000 ca         1 NDY      -0.137000
      3 CAH          2.0740     0.0000     1.1970 ca         1 NDY      -0.144000
      4 CAJ          1.3830     0.0010     2.3940 ca         1 NDY      -0.137000
      5 CAL          0.0010     0.0020     2.3940 ca         1 NDY      -0.119500
      6 CAQ         -0.6910     0.0010     1.1980 ca         1 NDY      -0.069300
      7 CAM         -2.1980     0.0020     1.1990 c3         1 NDY      -0.038100
      8 CAR         -2.7080    -1.4410     1.1980 c3         1 NDY       0.204300
      9 OAC         -2.3050    -2.0890     2.4070 oh         1 NDY      -0.603800
     10 CAP         -4.2130    -1.4410     1.1060 c2         1 NDY      -0.208400
     11 CAG         -4.8840    -1.8580     2.1330 c2         1 NDY      -0.044200
     12 CAU         -6.3820    -1.9260     2.1860 c3         1 NDY       0.073000
     13 CAO         -6.8560    -1.4240     3.5260 c          1 NDY       0.869600
     14 OAB         -6.9080    -2.2600     4.5750 o          1 NDY      -0.827300
     15 OAA         -7.1910    -0.2710     3.6560 o          1 NDY      -0.827300
     16 OAF         -6.8010    -3.2800     2.0120 oh         1 NDY      -0.608800
     17 CAN         -6.9890    -1.0620     1.0780 c3         1 NDY      -0.105400
     18 CAS         -6.2980    -1.4150    -0.2450 c3         1 NDY       0.112100
     19 OAD         -6.9560    -0.7470    -1.3240 oh         1 NDY      -0.628800
     20 CAT         -4.8410    -0.9520    -0.1660 c3         1 NDY       0.201300
     21 OAE         -4.1170    -1.4750    -1.2820 oh         1 NDY      -0.620800
     22 HAK         -0.5420    -0.0000    -0.9380 ha         1 NDY       0.138000
     23 HAI          1.9240    -0.0010    -0.9380 ha         1 NDY       0.119500
     24 HAH          3.1570    -0.0000     1.1970 ha         1 NDY       0.116000
     25 HAJ          1.9240     0.0020     3.3320 ha         1 NDY       0.119500
     26 HAL         -0.5400     0.0030     3.3320 ha         1 NDY       0.138000
     27 HAM1        -2.5580     0.5120     2.0830 hc         1 NDY       0.062200
     28 HAM2        -2.5590     0.5130     0.3150 hc         1 NDY       0.062200
     29 HAR         -2.2940    -1.9710     0.3490 h1         1 NDY       0.044700
     30 HAC         -2.0130    -2.9640     2.2120 ho         1 NDY       0.400000
     31 HAG         -4.3290    -2.1740     3.0080 ha         1 NDY       0.163000
     32 HAT         -4.8090     0.1310    -0.1860 h1         1 NDY       0.041700
     33 HAF         -7.7000    -3.3680     2.2820 ho         1 NDY       0.407000
     34 HAN1        -6.8280    -0.0150     1.3040 hc         1 NDY       0.062200
     35 HAN2        -8.0500    -1.2650     0.9990 hc         1 NDY       0.062200
     36 HAS         -6.3320    -2.4870    -0.3980 h1         1 NDY       0.056700
     37 HAD         -7.4780    -1.3660    -1.8060 ho         1 NDY       0.393000
     38 HAE         -4.2240    -0.9010    -2.0230 ho         1 NDY       0.394000
@<TRIPOS>BOND
     1     1     2 ar
     2     1     6 ar
     3     2     3 ar
     4     3     4 ar
     5     4     5 ar
     6     5     6 ar
     7     6     7 1
     8     7     8 1
     9     8     9 1
    10     8    10 1
    11    10    11 2
    12    10    20 1
    13    11    12 1
    14    12    13 1
    15    12    16 1
    16    12    17 1
    17    13    14 1
    18    13    15 1
    19    17    18 1
    20    18    19 1
    21    18    20 1
    22    20    21 1
    23     1    22 1
    24     2    23 1
    25     3    24 1
    26     4    25 1
    27     5    26 1
    28     7    27 1
    29     7    28 1
    30     8    29 1
    31     9    30 1
    32    11    31 1
    33    20    32 1
    34    16    33 1
    35    17    34 1
    36    17    35 1
    37    18    36 1
    38    19    37 1
    39    21    38 1
@<TRIPOS>SUBSTRUCTURE
     1 NDY         1 TEMP              0 ****  ****    0 ROOT
