@<TRIPOS>MOLECULE
NDZ
   36    37     1     0     0
SMALL
bcc


@<TRIPOS>ATOM
      1 O           0.2700    0.7030   -0.3480 o         1 NDZ     -0.801300
      2 C           1.3040   -0.0190   -0.2500 c         1 NDZ      0.918600
      3 OXT         1.8090   -0.7410   -1.1350 o         1 NDZ     -0.801300
      4 CA          2.0390    0.0250    1.1480 c3        1 NDZ     -0.029500
      5 N           1.1190    0.5860    2.1820 n4        1 NDZ     -0.839600
      6 CB          2.5780   -1.3490    1.5240 c3        1 NDZ     -0.061400
      7 CAJ         2.9930   -1.4720    2.9860 c3        1 NDZ      0.002800
      8 CAD         3.7240   -0.1920    3.4840 c         1 NDZ      0.898600
      9 OAA         3.0560    0.6090    4.2230 o         1 NDZ     -0.817800
     10 OAE         4.9110    0.0010    3.1400 o         1 NDZ     -0.817800
     11 CAR         3.8350   -2.7190    3.2590 c3        1 NDZ     -0.089400
     12 OAI         1.7660   -1.6300    3.7470 os        1 NDZ     -0.443600
     13 CAH         1.9100   -2.6290    4.7570 c3        1 NDZ      0.093100
     14 CAQ         3.2830   -3.3040    4.5670 c3        1 NDZ      0.120100
     15 OAP         4.2630   -3.0500    5.5680 os        1 NDZ     -0.401600
     16 CAO         3.7530   -2.9940    6.8880 c3        1 NDZ      0.095400
     17 CAF         2.7810   -1.8310    7.0660 c3        1 NDZ      0.095100
     18 OAB         3.4290   -0.5870    6.9340 oh        1 NDZ     -0.597800
     19 CAG         1.5840   -1.9840    6.1160 c3        1 NDZ      0.120100
     20 OAC         0.9420   -0.7420    5.9280 oh        1 NDZ     -0.610800
     21 HA          2.9020    0.7470    1.0570 hx        1 NDZ      0.097700
     22 HN          1.6610    1.0140    2.9540 hn        1 NDZ      0.455800
     23 HNA         0.5540   -0.1700    2.5740 hn        1 NDZ      0.455800
     24 HB          1.8100   -2.1300    1.2840 hc        1 NDZ      0.076200
     25 HBA         3.4720   -1.5340    0.8720 hc        1 NDZ      0.076200
     26 HAR         3.7320   -3.4660    2.4360 hc        1 NDZ      0.077700
     27 HARA        4.9140   -2.4380    3.3660 hc        1 NDZ      0.077700
     28 HAH         1.1060   -3.3890    4.5340 h1        1 NDZ      0.044700
     29 HAQ         3.1500   -4.4190    4.5060 h1        1 NDZ      0.035700
     30 HAO         3.2540   -3.9620    7.1560 h1        1 NDZ      0.045200
     31 HAOA        4.6690   -2.8380    7.5190 h1        1 NDZ      0.045200
     32 HAF         2.4030   -1.8250    8.1290 h1        1 NDZ      0.063700
     33 HOAB        3.6570   -0.4540    5.9970 ho        1 NDZ      0.451000
     34 HAG         0.8100   -2.6250    6.6280 h1        1 NDZ      0.052700
     35 HOAC        1.5630   -0.1620    5.4470 ho        1 NDZ      0.456000
     36 HN3         0.5030    1.2610    1.7100 hn        1 NDZ      0.455800
@<TRIPOS>BOND
     1    1    2 1   
     2    2    3 1   
     3    2    4 1   
     4    4    5 1   
     5    4    6 1   
     6    4   21 1   
     7    5   22 1   
     8    5   23 1   
     9    5   36 1   
    10    6    7 1   
    11    6   24 1   
    12    6   25 1   
    13    7    8 1   
    14    7   11 1   
    15    7   12 1   
    16    8    9 1   
    17    8   10 1   
    18   11   14 1   
    19   11   26 1   
    20   11   27 1   
    21   12   13 1   
    22   13   14 1   
    23   13   19 1   
    24   13   28 1   
    25   14   15 1   
    26   14   29 1   
    27   15   16 1   
    28   16   17 1   
    29   16   30 1   
    30   16   31 1   
    31   17   18 1   
    32   17   19 1   
    33   17   32 1   
    34   18   33 1   
    35   19   20 1   
    36   19   34 1   
    37   20   35 1   
@<TRIPOS>SUBSTRUCTURE
     1 NDZ         1 TEMP              0 ****  ****    0 ROOT
