@<TRIPOS>MOLECULE
NE1
   23    24     1     0     0
SMALL
bcc


@<TRIPOS>ATOM
      1 CL18        0.0230    0.1350   -0.1120 cl        1 NE1     -0.057400
      2 C10         1.7150    0.0680   -0.0220 ca        1 NE1      0.026400
      3 C9          2.3670   -0.0990    1.2090 ca        1 NE1      0.014400
      4 CL17        1.4650   -0.2440    2.6350 cl        1 NE1     -0.042400
      5 C8          3.7720   -0.1480    1.2500 ca        1 NE1      0.034400
      6 CL16        4.5580   -0.3740    2.7360 cl        1 NE1     -0.052400
      7 C11         2.4590    0.1810   -1.2010 ca        1 NE1     -0.118000
      8 C12         3.8460    0.1320   -1.1530 ca        1 NE1     -0.104000
      9 C7          4.5190   -0.0250    0.0670 cp        1 NE1     -0.023000
     10 C4          5.9830   -0.0630    0.0610 cp        1 NE1     -0.070000
     11 C3          6.6460   -1.0560   -0.6710 ca        1 NE1     -0.067000
     12 C2          8.0400   -1.1010   -0.7110 ca        1 NE1     -0.041100
     13 CL14        8.7910   -2.3290   -1.6080 cl        1 NE1     -0.068900
     14 C5          6.7250    0.8980    0.7550 ca        1 NE1     -0.067000
     15 C6          8.1190    0.8650    0.7190 ca        1 NE1     -0.041100
     16 CL13        8.9930    2.0510    1.5710 cl        1 NE1     -0.068900
     17 C1          8.7930   -0.1340   -0.0110 ca        1 NE1      0.154100
     18 O15        10.1590   -0.2210   -0.0850 oh        1 NE1     -0.473100
     19 H11         1.9440    0.3090   -2.1670 ha        1 NE1      0.158000
     20 H12         4.4310    0.2210   -2.0830 ha        1 NE1      0.152000
     21 H3          6.0590   -1.8130   -1.2170 ha        1 NE1      0.159500
     22 H5          6.2070    1.6820    1.3320 ha        1 NE1      0.159500
     23 HO15       10.5410    0.4950    0.4500 ho        1 NE1      0.436000
@<TRIPOS>BOND
     1    1    2 1   
     2    2    3 ar  
     3    2    7 ar  
     4    3    4 1   
     5    3    5 ar  
     6    5    6 1   
     7    5    9 ar  
     8    7    8 ar  
     9    7   19 1   
    10    8    9 ar  
    11    8   20 1   
    12    9   10 1   
    13   10   11 ar  
    14   10   14 ar  
    15   11   12 ar  
    16   11   21 1   
    17   12   13 1   
    18   12   17 ar  
    19   14   15 ar  
    20   14   22 1   
    21   15   16 1   
    22   15   17 ar  
    23   17   18 1   
    24   18   23 1   
@<TRIPOS>SUBSTRUCTURE
     1 NE1         1 TEMP              0 ****  ****    0 ROOT
