@<TRIPOS>MOLECULE
molecule
   23    24     1     0     0
SMALL
bcc


@<TRIPOS>ATOM
      1 Cl18         0.0000     0.0000     0.0000 cl         1 NE1      -0.071400
      2 C10          1.7360     0.0000     0.0000 ca         1 NE1       0.039400
      3 C9           2.4260     0.0000     1.2020 ca         1 NE1       0.031400
      4 Cl17         1.5530     0.0010     2.7030 cl         1 NE1      -0.058400
      5 C8           3.8080    -0.0040     1.2060 ca         1 NE1       0.043400
      6 Cl16         4.6740    -0.0040     2.7110 cl         1 NE1      -0.067400
      7 C11          2.4260    -0.0010    -1.2000 ca         1 NE1      -0.112000
      8 C12          3.8060    -0.0010    -1.2050 ca         1 NE1      -0.098000
      9 C7           4.5060     0.0000    -0.0010 cp         1 NE1      -0.025000
     10 C4           5.9900     0.0000    -0.0020 cp         1 NE1      -0.041000
     11 C3           6.6870    -0.9240    -0.7770 ca         1 NE1      -0.090000
     12 C2           8.0680    -0.9190    -0.7820 ca         1 NE1       0.005900
     13 Cl14         8.9360    -2.0710    -1.7470 cl         1 NE1      -0.077400
     14 C5           6.6890     0.9250     0.7710 ca         1 NE1      -0.090000
     15 C6           8.0690     0.9230     0.7680 ca         1 NE1       0.005900
     16 Cl13         8.9400     2.0740     1.7310 cl         1 NE1      -0.077400
     17 C1           8.7610    -0.0000    -0.0060 ca         1 NE1       0.126100
     18 O15         10.1210    -0.0000    -0.0070 oh         1 NE1      -0.500100
     19 H11          1.8810    -0.0010    -2.1360 ha         1 NE1       0.157000
     20 H12          4.3440     0.0010    -2.1460 ha         1 NE1       0.154000
     21 H3           6.1470    -1.6740    -1.3430 ha         1 NE1       0.158500
     22 H5           6.1500     1.6790     1.3320 ha         1 NE1       0.158500
     23 HO15        10.4360    -0.5720     0.6740 ho         1 NE1       0.431000
@<TRIPOS>BOND
     1     1     2 1
     2     2     3 ar
     3     2     7 ar
     4     3     4 1
     5     3     5 ar
     6     5     6 1
     7     5     9 ar
     8     7     8 ar
     9     7    19 1
    10     8     9 ar
    11     8    20 1
    12     9    10 1
    13    10    11 ar
    14    10    14 ar
    15    11    12 ar
    16    11    21 1
    17    12    13 1
    18    12    17 ar
    19    14    15 ar
    20    14    22 1
    21    15    16 1
    22    15    17 ar
    23    17    18 1
    24    18    23 1
@<TRIPOS>SUBSTRUCTURE
     1 NE1         1 TEMP              0 ****  ****    0 ROOT
