@<TRIPOS>MOLECULE
molecule
   23    24     1     0     0
SMALL
bcc


@<TRIPOS>ATOM
      1 Cl17         0.0000     0.0000     0.0000 cl         1 NE2      -0.080400
      2 C9           1.7360     0.0000     0.0000 ca         1 NE2       0.030400
      3 C8           2.4260     0.0000     1.1970 ca         1 NE2      -0.102000
      4 C10          2.4280    -0.0050    -1.2000 ca         1 NE2       0.033400
      5 Cl16         1.5550    -0.0130    -2.7010 cl         1 NE2      -0.081400
      6 C11          3.8120    -0.0070    -1.2060 ca         1 NE2      -0.112000
      7 C12          4.5100    -0.0010    -0.0160 ca         1 NE2      -0.106000
      8 C7           3.8190     0.0060     1.1940 cp         1 NE2      -0.033000
      9 C3           4.5660     0.0120     2.4770 cp         1 NE2      -0.032000
     10 C2           5.7180    -0.7590     2.6180 ca         1 NE2      -0.100000
     11 C4           4.1150     0.7880     3.5430 ca         1 NE2      -0.100000
     12 C5           4.8110     0.7920     4.7350 ca         1 NE2       0.009400
     13 Cl14         4.2500     1.7590     6.0630 cl         1 NE2      -0.077900
     14 C6           5.9590     0.0230     4.8720 ca         1 NE2       0.121100
     15 O15          6.6430     0.0280     6.0470 oh         1 NE2      -0.499100
     16 C1           6.4130    -0.7480     3.8100 ca         1 NE2       0.009400
     17 Cl13         7.8490    -1.7070     3.9860 cl         1 NE2      -0.077900
     18 H8           1.8850     0.0050     2.1360 ha         1 NE2       0.155000
     19 H11          4.3480    -0.0120    -2.1480 ha         1 NE2       0.154000
     20 H12          5.5930     0.0000    -0.0220 ha         1 NE2       0.147000
     21 H2           6.0730    -1.3610     1.7890 ha         1 NE2       0.156000
     22 H4           3.2560     1.4360     3.4160 ha         1 NE2       0.156000
     23 HO15         6.3100    -0.6530     6.6080 ho         1 NE2       0.430000
@<TRIPOS>BOND
     1     1     2 1
     2     2     3 ar
     3     2     4 ar
     4     3     8 ar
     5     3    18 1
     6     4     5 1
     7     4     6 ar
     8     6     7 ar
     9     6    19 1
    10     7     8 ar
    11     7    20 1
    12     8     9 1
    13     9    10 ar
    14     9    11 ar
    15    10    16 ar
    16    10    21 1
    17    11    12 ar
    18    11    22 1
    19    12    13 1
    20    12    14 ar
    21    14    15 1
    22    14    16 ar
    23    15    23 1
    24    16    17 1
@<TRIPOS>SUBSTRUCTURE
     1 NE2         1 TEMP              0 ****  ****    0 ROOT
