@<TRIPOS>MOLECULE
NE2
   23    24     1     0     0
SMALL
bcc


@<TRIPOS>ATOM
      1 CL17        0.0310    0.0580   -0.0440 cl        1 NE2     -0.065400
      2 C9          1.7270    0.0320   -0.0440 ca        1 NE2      0.018400
      3 C8          2.4030    0.0280    1.1800 ca        1 NE2     -0.108000
      4 C10         2.4510    0.0130   -1.2460 ca        1 NE2      0.019400
      5 CL16        1.6630    0.0180   -2.7460 cl        1 NE2     -0.064400
      6 C11         3.8500   -0.0110   -1.2100 ca        1 NE2     -0.116000
      7 C12         4.5190   -0.0160    0.0090 ca        1 NE2     -0.112000
      8 C7          3.8020    0.0040    1.2140 cp        1 NE2     -0.026000
      9 C3          4.5060    0.0010    2.4950 cp        1 NE2     -0.062000
     10 C2          5.6270   -0.8170    2.6810 ca        1 NE2     -0.076000
     11 C4          4.0650    0.8160    3.5460 ca        1 NE2     -0.076000
     12 C5          4.7300    0.8220    4.7720 ca        1 NE2     -0.038600
     13 CL14        4.1540    1.8330    6.0070 cl        1 NE2     -0.069400
     14 C6          5.8600   -0.0020    4.9640 ca        1 NE2      0.151100
     15 O15         6.4750    0.0410    6.1870 oh        1 NE2     -0.472100
     16 C1          6.2980   -0.8200    3.9030 ca        1 NE2     -0.038600
     17 CL13        7.6550   -1.8300    4.0950 cl        1 NE2     -0.069400
     18 H8          1.8300    0.0360    2.1220 ha        1 NE2      0.156000
     19 H11         4.4220   -0.0230   -2.1510 ha        1 NE2      0.154000
     20 H12         5.6200   -0.0270    0.0270 ha        1 NE2      0.145000
     21 H2          5.9750   -1.4660    1.8610 ha        1 NE2      0.157000
     22 H4          3.1870    1.4660    3.3990 ha        1 NE2      0.157000
     23 HO15        7.2280   -0.5740    6.1740 ho        1 NE2      0.436000
@<TRIPOS>BOND
     1    1    2 1   
     2    2    3 ar  
     3    2    4 ar  
     4    3    8 ar  
     5    3   18 1   
     6    4    5 1   
     7    4    6 ar  
     8    6    7 ar  
     9    6   19 1   
    10    7    8 ar  
    11    7   20 1   
    12    8    9 1   
    13    9   10 ar  
    14    9   11 ar  
    15   10   16 ar  
    16   10   21 1   
    17   11   12 ar  
    18   11   22 1   
    19   12   13 1   
    20   12   14 ar  
    21   14   15 1   
    22   14   16 ar  
    23   15   23 1   
    24   16   17 1   
@<TRIPOS>SUBSTRUCTURE
     1 NE2         1 TEMP              0 ****  ****    0 ROOT
