@<TRIPOS>MOLECULE
NE6
   61    63     1     0     0
SMALL
bcc


@<TRIPOS>ATOM
      1 O1           0.0000     0.0000     0.0000 os         1 NE6      -0.168000
      2 C2           1.3520     0.0000     0.0000 c2         1 NE6       0.391000
      3 C3           2.0400     0.0000     1.3520 c3         1 NE6      -0.250000
      4 O2           1.9840    -0.0010    -1.0290 o          1 NE6      -0.300000
      5 C4           1.3420     1.0330     2.2090 c2         1 NE6       0.337000
      6 C5           0.0280     1.4150     1.8770 c2         1 NE6      -0.322000
      7 C6          -0.5960     0.9060     0.8000 c2         1 NE6       0.141000
      8 C7          -1.9970     1.3610     0.4800 c3         1 NE6      -0.045000
      9 C8          -2.9410     0.1570     0.4990 c3         1 NE6      -0.119000
     10 C9          -2.0190     2.0040    -0.9080 c3         1 NE6      -0.117000
     11 C10         -3.4110     2.5760    -1.1830 c3         1 NE6      -0.053000
     12 C11         -3.4330     3.2200    -2.5710 DU         1 NE6      -0.240000
     13 C12         -4.8050     3.7830    -2.8410 c2         1 NE6      -0.225000
     14 C13         -6.1660     5.5340    -3.4100 c2         1 NE6       0.377000
     15 C14         -7.6570     7.3040    -3.9960 c3         1 NE6       0.086000
     16 C15          1.9220    -1.3620     1.9880 c2         1 NE6       0.317000
     17 C16          2.9100    -2.3370     1.7530 c2         1 NE6      -0.125000
     18 C17          4.0870    -2.0180     0.8660 c3         1 NE6      -0.125000
     19 C18          2.8040    -3.5630     2.3250 c2         1 NE6      -0.291000
     20 C19          3.8300    -4.5740     2.0820 c3         1 NE6      -0.276000
     21 C20          3.7240    -5.7810     2.6460 c2         1 NE6       0.031000
     22 C21          2.5480    -6.0990     3.5320 c3         1 NE6      -0.082000
     23 C22          4.7830    -6.8240     2.3950 c3         1 NE6      -0.086000
     24 C23          5.8130    -6.7880     3.5260 c3         1 NE6      -0.099000
     25 C24          6.8860    -7.8480     3.2720 c3         1 NE6      -0.112000
     26 N12         -4.9400     5.0300    -3.1680 n2         1 NE6      -0.048000
     27 O14         -6.3060     6.8310    -3.7510 os         1 NE6      -0.238000
     28 O13         -7.1450     4.8190    -3.3220 o          1 NE6      -0.381000
     29 O4           1.9060     1.5240     3.1670 o          1 NE6      -0.300000
     30 O15          0.9730    -1.6180     2.7020 o          1 NE6      -0.258000
     31 H3           3.0830     0.2670     1.2330 hc         1 NE6       0.139000
     32 H5          -0.4910     2.1330     2.5010 ha         1 NE6       0.150000
     33 H7          -2.3190     2.0840     1.2180 hc         1 NE6       0.089000
     34 H8          -2.5500    -0.5980     1.1710 hc         1 NE6       0.055667
     35 H8A         -3.9200     0.4710     0.8400 hc         1 NE6       0.055667
     36 H8B         -3.0210    -0.2550    -0.5000 hc         1 NE6       0.055667
     37 H9          -1.7810     1.2580    -1.6560 hc         1 NE6       0.064000
     38 H9A         -1.2870     2.8020    -0.9480 hc         1 NE6       0.064000
     39 H10         -4.1430     1.7790    -1.1430 hc         1 NE6       0.069500
     40 H10A        -3.6490     3.3230    -0.4350 hc         1 NE6       0.069500
     41 H11         -2.7010     4.0170    -2.6110 ha         1 NE6       0.074500
     42 H11A        -3.1960     2.4730    -3.3190 ha         1 NE6       0.074500
     43 H12         -4.0950     3.5050    -3.6110 DU         1 NE6       0.318000
     44 H14         -7.6280     8.3540    -4.2620 h1         1 NE6       0.041667
     45 H14A        -8.2530     7.1750    -3.1010 h1         1 NE6       0.041667
     46 H14B        -8.0960     6.7380    -4.8080 h1         1 NE6       0.041667
     47 H17          4.0060    -2.5780    -0.0570 hc         1 NE6       0.062000
     48 H17A         4.0970    -0.9580     0.6460 hc         1 NE6       0.062000
     49 H17B         5.0050    -2.2900     1.3730 hc         1 NE6       0.062000
     50 H18          2.8790    -4.1530     1.4200 DU         1 NE6       0.309000
     51 H19          4.6750    -4.3460     1.4450 hc         1 NE6       0.110000
     52 H21          1.6330    -6.0220     2.9590 hc         1 NE6       0.066000
     53 H21A         2.6490    -7.1060     3.9180 hc         1 NE6       0.066000
     54 H21B         2.5180    -5.3980     4.3580 hc         1 NE6       0.066000
     55 H22          5.2750    -6.6190     1.4520 hc         1 NE6       0.064500
     56 H22A         4.3220    -7.8040     2.3570 hc         1 NE6       0.064500
     57 H23          5.3210    -6.9920     4.4700 hc         1 NE6       0.058500
     58 H23A         6.2740    -5.8090     3.5640 hc         1 NE6       0.058500
     59 H24          6.4290    -8.8300     3.2630 hc         1 NE6       0.042667
     60 H24A         7.6310    -7.8030     4.0570 hc         1 NE6       0.042667
     61 H24B         7.3590    -7.6610     2.3150 hc         1 NE6       0.042667
@<TRIPOS>BOND
     1     1     2 1   
     2     1     7 1   
     3     2     3 1   
     4     2     4 1   
     5     3     5 1   
     6     3    16 1   
     7     3    31 1   
     8     5     6 1   
     9     5    29 1   
    10     6     7 1   
    11     6    32 1   
    12     7     8 1   
    13     8     9 1   
    14     8    10 1   
    15     8    33 1   
    16     9    34 1   
    17     9    35 1   
    18     9    36 1   
    19    10    11 1   
    20    10    37 1   
    21    10    38 1   
    22    11    12 1   
    23    11    39 1   
    24    11    40 1   
    25    12    13 1   
    26    12    41 1   
    27    12    42 1   
    28    12    43 1   
    29    13    26 1   
    30    13    43 1   
    31    14    26 1   
    32    14    27 1   
    33    14    28 1   
    34    15    27 1   
    35    15    44 1   
    36    15    45 1   
    37    15    46 1   
    38    16    17 1   
    39    16    30 1   
    40    17    18 1   
    41    17    19 1   
    42    18    47 1   
    43    18    48 1   
    44    18    49 1   
    45    19    20 1   
    46    19    50 1   
    47    20    21 1   
    48    20    50 1   
    49    20    51 1   
    50    21    22 1   
    51    21    23 1   
    52    22    52 1   
    53    22    53 1   
    54    22    54 1   
    55    23    24 1   
    56    23    55 1   
    57    23    56 1   
    58    24    25 1   
    59    24    57 1   
    60    24    58 1   
    61    25    59 1   
    62    25    60 1   
    63    25    61 1   
@<TRIPOS>SUBSTRUCTURE
     1 NE6         1 TEMP              0 ****  ****    0 ROOT
