@<TRIPOS>MOLECULE
molecule
   61    61     1     0     0
SMALL
bcc


@<TRIPOS>ATOM
      1 O1           0.0000     0.0000     0.0000 os         1 NE6      -0.326200
      2 C2           1.3520     0.0000     0.0000 c          1 NE6       0.752600
      3 C3           2.0400     0.0000     1.3520 c3         1 NE6      -0.371700
      4 O2           1.9840    -0.0010    -1.0290 o          1 NE6      -0.519500
      5 C4           1.3420     1.0330     2.2090 c          1 NE6       0.595300
      6 C5           0.0280     1.4150     1.8770 ce         1 NE6      -0.351200
      7 C6          -0.5960     0.9060     0.8000 c2         1 NE6       0.176900
      8 C7          -1.9970     1.3610     0.4800 c3         1 NE6      -0.028500
      9 C8          -2.9410     0.1570     0.4990 c3         1 NE6      -0.090100
     10 C9          -2.0190     2.0040    -0.9080 c3         1 NE6      -0.079400
     11 C10         -3.4110     2.5760    -1.1830 c3         1 NE6      -0.080400
     12 C11         -3.4330     3.2200    -2.5710 c3         1 NE6      -0.143700
     13 C12         -4.8050     3.7830    -2.8410 c2         1 NE6       0.550200
     14 C13         -6.1660     5.5340    -3.4100 c          1 NE6       0.786500
     15 C14         -7.6570     7.3040    -3.9960 c3         1 NE6       0.145700
     16 C15          1.9220    -1.3620     1.9880 c          1 NE6       0.595300
     17 C16          2.9100    -2.3370     1.7530 ce         1 NE6      -0.194400
     18 C17          4.0870    -2.0180     0.8660 c3         1 NE6      -0.061900
     19 C18          2.8040    -3.5630     2.3250 cf         1 NE6      -0.091000
     20 C19          3.8300    -4.5740     2.0820 cf         1 NE6      -0.453000
     21 C20          3.7240    -5.7810     2.6460 c2         1 NE6       0.072600
     22 C21          2.5480    -6.0990     3.5320 c3         1 NE6      -0.136900
     23 C22          4.7830    -6.8240     2.3950 c3         1 NE6      -0.054200
     24 C23          5.8130    -6.7880     3.5260 c3         1 NE6      -0.077400
     25 C24          6.8860    -7.8480     3.2720 c3         1 NE6      -0.091100
     26 N12         -4.9400     5.0300    -3.1680 ne         1 NE6      -0.678100
     27 O14         -6.3060     6.8310    -3.7510 os         1 NE6      -0.392900
     28 O13         -7.1450     4.8190    -3.3220 o          1 NE6      -0.600000
     29 O4           1.9060     1.5240     3.1670 o          1 NE6      -0.507100
     30 O15          0.9730    -1.6180     2.7020 o          1 NE6      -0.522100
     31 H3           3.0830     0.2670     1.2330 hc         1 NE6       0.129700
     32 H5          -0.4910     2.1340     2.5000 ha         1 NE6       0.174000
     33 H7          -2.3190     2.0840     1.2180 hc         1 NE6       0.078700
     34 H8          -2.6620    -0.5080     1.3080 hc         1 NE6       0.048367
     35 H8A         -2.8700    -0.3720    -0.4440 hc         1 NE6       0.048367
     36 H8B         -3.9580     0.4980     0.6460 hc         1 NE6       0.048367
     37 H9          -1.2870     2.8020    -0.9490 hc         1 NE6       0.057200
     38 H9A         -1.7820     1.2580    -1.6560 hc         1 NE6       0.057200
     39 H10         -3.6490     3.3230    -0.4350 hc         1 NE6       0.050700
     40 H10A        -4.1430     1.7790    -1.1430 hc         1 NE6       0.050700
     41 H11         -2.7010     4.0170    -2.6110 hc         1 NE6       0.075200
     42 H11A        -3.1960     2.4730    -3.3190 hc         1 NE6       0.075200
     43 H12         -5.6770     3.1460    -2.7620 h4         1 NE6       0.002800
     44 H14         -8.0960     6.7400    -4.8100 h1         1 NE6       0.051367
     45 H14A        -8.2540     7.1730    -3.1020 h1         1 NE6       0.051367
     46 H14B        -7.6290     8.3550    -4.2600 h1         1 NE6       0.051367
     47 H17          3.7380    -1.8090    -0.1370 hc         1 NE6       0.061700
     48 H17A         4.7620    -2.8650     0.8440 hc         1 NE6       0.061700
     49 H17B         4.6080    -1.1520     1.2550 hc         1 NE6       0.061700
     50 H18          1.9590    -3.7920     2.9630 ha         1 NE6       0.126000
     51 H19          3.7570    -3.9820     2.9870 ha         1 NE6       0.297000
     52 H21          2.5900    -7.1410     3.8270 hc         1 NE6       0.059700
     53 H21A         2.5820    -5.4730     4.4160 hc         1 NE6       0.059700
     54 H21B         1.6280    -5.9120     2.9920 hc         1 NE6       0.059700
     55 H22          4.3220    -7.8040     2.3570 hc         1 NE6       0.067700
     56 H22A         5.2750    -6.6200     1.4520 hc         1 NE6       0.067700
     57 H23          5.3210    -6.9920     4.4700 hc         1 NE6       0.044700
     58 H23A         6.2740    -5.8090     3.5640 hc         1 NE6       0.044700
     59 H24          7.6110    -7.8290     4.0770 hc         1 NE6       0.037033
     60 H24A         7.3840    -7.6390     2.3330 hc         1 NE6       0.037033
     61 H24B         6.4240    -8.8260     3.2250 hc         1 NE6       0.037033
@<TRIPOS>BOND
     1     7     1 1
     2     2     1 1
     3     3     2 1
     4     2     4 2
     5     5     3 1
     6    16     3 1
     7     3    31 1
     8    29     5 2
     9     5     6 1
    10     6     7 2
    11     6    32 1
    12     7     8 1
    13     9     8 1
    14     8    10 1
    15     8    33 1
    16     9    34 1
    17     9    35 1
    18     9    36 1
    19    10    11 1
    20    10    37 1
    21    10    38 1
    22    11    12 1
    23    11    39 1
    24    11    40 1
    25    12    13 1
    26    12    41 1
    27    12    42 1
    28    13    26 2
    29    13    43 1
    30    26    14 1
    31    28    14 2
    32    14    27 1
    33    27    15 1
    34    15    44 1
    35    15    45 1
    36    15    46 1
    37    30    16 2
    38    16    17 1
    39    18    17 1
    40    17    19 2
    41    18    47 1
    42    18    48 1
    43    18    49 1
    44    19    20 1
    45    19    50 1
    46    20    21 2
    47    20    51 1
    48    21    22 1
    49    21    23 1
    50    22    52 1
    51    22    53 1
    52    22    54 1
    53    23    24 1
    54    23    55 1
    55    23    56 1
    56    24    25 1
    57    24    57 1
    58    24    58 1
    59    25    59 1
    60    25    60 1
    61    25    61 1
@<TRIPOS>SUBSTRUCTURE
     1 NE6         1 TEMP              0 ****  ****    0 ROOT
