@<TRIPOS>MOLECULE
NE8
   38    41     1     0     0
SMALL
bcc


@<TRIPOS>ATOM
      1 C15        -0.0070   -0.1580   -0.0460 c3        1 NE8     -0.032100
      2 C14         1.5060    0.0050   -0.0060 c3        1 NE8     -0.021100
      3 C5          2.0130   -0.0020    1.3930 ca        1 NE8     -0.016300
      4 C4          2.2970   -1.2050    2.0920 ca        1 NE8      0.183400
      5 N10         2.0950   -2.4260    1.4420 nc        1 NE8     -0.670100
      6 C9          2.3380   -3.5620    2.1010 cd        1 NE8      0.651800
      7 N23         2.0140   -4.8090    1.4980 nh        1 NE8     -0.880800
      8 N8          2.8570   -3.6090    3.4170 n         1 NE8     -0.504400
      9 C7          3.0740   -2.4250    4.1340 c         1 NE8      0.717100
     10 O22         3.4970   -2.5130    5.3020 o         1 NE8     -0.628500
     11 C3          2.7900   -1.1580    3.4340 ca        1 NE8     -0.180600
     12 C2          3.0090    0.0370    4.1190 ca        1 NE8     -0.063000
     13 C1          2.7290    1.2150    3.4400 ca        1 NE8     -0.096200
     14 N11         2.8260    2.5660    3.8040 na        1 NE8     -0.294300
     15 C12         2.3970    3.3040    2.6880 cc        1 NE8      0.441700
     16 N13         2.0360    2.5410    1.6470 nd        1 NE8     -0.577100
     17 C6          2.2280    1.2040    2.0700 ca        1 NE8      0.104400
     18 C16        -0.5240   -0.0720   -1.4390 ca        1 NE8     -0.074300
     19 C17        -0.5370    1.1570   -2.1100 ca        1 NE8     -0.128000
     20 C18        -1.0320    1.2450   -3.4100 ca        1 NE8     -0.131000
     21 C19        -1.5190    0.1060   -4.0520 ca        1 NE8     -0.135000
     22 C20        -1.5080   -1.1210   -3.3890 ca        1 NE8     -0.131000
     23 C21        -1.0130   -1.2110   -2.0890 ca        1 NE8     -0.128000
     24 H151       -0.4820    0.6490    0.5740 hc        1 NE8      0.055700
     25 H152       -0.2860   -1.1450    0.4110 hc        1 NE8      0.055700
     26 H141        1.9860   -0.8190   -0.5990 hc        1 NE8      0.065200
     27 H142        1.7830    0.9710   -0.5080 hc        1 NE8      0.065200
     28 H231        1.7110   -4.7230    0.5500 hn        1 NE8      0.409300
     29 H232        2.7150   -5.5090    1.6170 hn        1 NE8      0.409300
     30 HN8         2.9710   -4.4780    3.8900 hn        1 NE8      0.336500
     31 H2          3.3870    0.0210    5.1520 ha        1 NE8      0.163000
     32 H11         3.1310    2.9130    4.6720 hn        1 NE8      0.310700
     33 H12         2.3710    4.4020    2.7010 h5        1 NE8      0.070800
     34 H17        -0.1540    2.0560   -1.6030 ha        1 NE8      0.134500
     35 H18        -1.0390    2.2140   -3.9290 ha        1 NE8      0.128000
     36 H19        -1.9090    0.1760   -5.0770 ha        1 NE8      0.128000
     37 H20        -1.8920   -2.0210   -3.8920 ha        1 NE8      0.128000
     38 H21        -1.0070   -2.1810   -1.5700 ha        1 NE8      0.134500
@<TRIPOS>BOND
     1    1    2 1
     2    1   18 1
     3    1   24 1
     4    1   25 1
     5    2    3 1
     6    2   26 1
     7    2   27 1
     8    3    4 ar
     9    3   17 ar
    10    4    5 1
    11    4   11 ar
    12    5    6 2
    13    6    7 1
    14    6    8 1
    15    7   28 1
    16    7   29 1
    17    8    9 1
    18    8   30 1
    19    9   10 2
    20    9   11 1
    21   11   12 ar
    22   12   13 ar
    23   12   31 1
    24   13   14 1
    25   13   17 ar
    26   14   15 1
    27   14   32 1
    28   15   16 2
    29   15   33 1
    30   16   17 1
    31   18   19 ar
    32   18   23 ar
    33   19   20 ar
    34   19   34 1
    35   20   21 ar
    36   20   35 1
    37   21   22 ar
    38   21   36 1
    39   22   23 ar
    40   22   37 1
    41   23   38 1
@<TRIPOS>SUBSTRUCTURE
     1 NE8         1 TEMP              0 ****  ****    0 ROOT
