@<TRIPOS>MOLECULE
molecule
   41    43     1     0     0
SMALL
bcc


@<TRIPOS>ATOM
      1 N            0.0000     0.0000     0.0000 nz         1 NEA      -0.811600
      2 CB           1.4680     0.0000     0.0000 c3         1 NEA       0.112800
      3 CG           1.9790     0.0000     1.4420 c3         1 NEA      -0.062300
      4 SD           3.7930     0.0000     1.4420 ss         1 NEA      -0.222200
      5 C5'          4.1080     0.0000     3.2260 c3         1 NEA       0.003700
      6 C4'          5.6170     0.0000     3.4790 c3         1 NEA       0.135100
      7 O4'          6.2040     1.1900     2.9280 os         1 NEA      -0.415600
      8 C3'          5.8960     0.0080     4.9940 c3         1 NEA       0.091100
      9 O3'          6.6410    -1.1500     5.3790 oh         1 NEA      -0.558800
     10 C2'          6.7360     1.2920     5.2140 c3         1 NEA       0.099100
     11 O2'          7.7960     1.0540     6.1430 oh         1 NEA      -0.547800
     12 C1'          7.2950     1.5630     3.7950 c3         1 NEA       0.265800
     13 N9           7.6260     2.9790     3.6290 na         1 NEA      -0.257000
     14 C8           6.7670     3.9700     3.2540 cc         1 NEA       0.408700
     15 N7           7.3950     5.1080     3.2070 nd         1 NEA      -0.575100
     16 C5           8.6930     4.9230     3.5470 ca         1 NEA      -0.218200
     17 C6           9.8130     5.7630     3.6700 ca         1 NEA       0.794200
     18 N6           9.7120     7.1190     3.4130 nv         1 NEA      -0.978500
     19 N1          10.9700     5.2250     4.0390 nb         1 NEA      -0.829000
     20 C2          11.0750     3.9330     4.2870 ca         1 NEA       0.754900
     21 N3          10.0550     3.1090     4.1850 nb         1 NEA      -0.791000
     22 C4           8.8550     3.5560     3.8290 ca         1 NEA       0.488800
     23 HN1         -0.3340    -0.8150     0.4760 hn         1 NEA       0.458133
     24 HN2         -0.3330    -0.0050    -0.9440 hn         1 NEA       0.458133
     25 HB1          1.8290     0.8840    -0.5110 hx         1 NEA       0.125200
     26 HB2          1.8290    -0.8840    -0.5110 hx         1 NEA       0.125200
     27 HG1          1.6180     0.8840     1.9530 h1         1 NEA       0.074700
     28 HG2          1.6180    -0.8850     1.9520 h1         1 NEA       0.074700
     29 H5'1         3.6680    -0.8840     3.6710 h1         1 NEA       0.072200
     30 H5'2         3.6670     0.8850     3.6710 h1         1 NEA       0.072200
     31 H4'          6.0700    -0.8740     3.0270 h1         1 NEA       0.094700
     32 H3'          4.9660     0.0680     5.5470 h1         1 NEA       0.043700
     33 H3T          6.1210    -1.6790     5.9600 ho         1 NEA       0.410000
     34 H2'          6.1060     2.1110     5.5400 h1         1 NEA       0.059700
     35 HO'2         7.5510     1.3850     6.9910 ho         1 NEA       0.412000
     36 H1'          8.1600     0.9390     3.6040 h2         1 NEA       0.125700
     37 H8           5.7170     3.8290     3.0280 h5         1 NEA       0.073800
     38 H61          8.8360     7.5110     3.1300 hn         1 NEA       0.453300
     39 H62         10.5160     7.7070     3.5100 hn         1 NEA       0.453300
     40 H2          12.0380     3.5360     4.5850 h5         1 NEA       0.068100
     41 HN3         -0.3340     0.8140     0.4770 hn         1 NEA       0.458133
@<TRIPOS>BOND
     1     1     2 1
     2     1    23 1
     3     1    24 1
     4     2     3 1
     5     2    25 1
     6     2    26 1
     7     3     4 1
     8     3    27 1
     9     3    28 1
    10     4     5 1
    11     5     6 1
    12     5    29 1
    13     5    30 1
    14     6     7 1
    15     6     8 1
    16     6    31 1
    17     7    12 1
    18     8     9 1
    19     8    10 1
    20     8    32 1
    21     9    33 1
    22    10    11 1
    23    10    12 1
    24    10    34 1
    25    11    35 1
    26    12    13 1
    27    12    36 1
    28    13    14 1
    29    13    22 1
    30    14    15 2
    31    14    37 1
    32    15    16 1
    33    16    17 ar
    34    16    22 ar
    35    17    18 1
    36    17    19 ar
    37    18    38 1
    38    18    39 1
    39    19    20 ar
    40    20    21 ar
    41    20    40 1
    42    21    22 ar
    43    41     1 1
@<TRIPOS>SUBSTRUCTURE
     1 NEA         1 TEMP              0 ****  ****    0 ROOT
