@<TRIPOS>MOLECULE
NEA
   41    43     1     0     0
SMALL
bcc


@<TRIPOS>ATOM
      1 N            0.0000     0.0000     0.0000 nz         1 NEA       0.081400
      2 CB           1.4680     0.0000     0.0000 c3         1 NEA      -0.024200
      3 CG           1.9790     0.0000     1.4420 c3         1 NEA       0.024700
      4 SD           3.7930     0.0000     1.4420 ss         1 NEA      -0.298200
      5 C5'          4.1080     0.0000     3.2260 c3         1 NEA       0.086700
      6 C4'          5.6170     0.0000     3.4790 c3         1 NEA       0.176100
      7 O4'          6.2040     1.1900     2.9280 os         1 NEA      -0.397600
      8 C3'          5.8960     0.0080     4.9940 c3         1 NEA       0.129100
      9 O3'          6.6410    -1.1500     5.3790 oh         1 NEA      -0.537800
     10 C2'          6.7360     1.2920     5.2140 c3         1 NEA       0.132100
     11 O2'          7.7960     1.0540     6.1430 oh         1 NEA      -0.528800
     12 C1'          7.2950     1.5630     3.7950 c3         1 NEA       0.159800
     13 N9           7.6260     2.9790     3.6290 na         1 NEA       0.198000
     14 C8           6.7670     3.9700     3.2540 cc         1 NEA       0.228700
     15 N7           7.3950     5.1080     3.2070 nd         1 NEA      -0.481100
     16 C5           8.6930     4.9230     3.5470 ca         1 NEA      -0.251200
     17 C6           9.8130     5.7630     3.6700 ca         1 NEA       0.594200
     18 N6           9.7120     7.1190     3.4130 nv         1 NEA      -0.472500
     19 N1          10.9700     5.2250     4.0390 nb         1 NEA      -0.737000
     20 C2          11.0750     3.9330     4.2870 ca         1 NEA       0.704900
     21 N3          10.0550     3.1090     4.1850 nb         1 NEA      -0.680000
     22 C4           8.8550     3.5560     3.8290 ca         1 NEA       0.285800
     23 HN1         -0.3340    -0.8150     0.4760 hn         1 NEA       0.224800
     24 HN2         -0.3330    -0.0050    -0.9440 hn         1 NEA       0.224800
     25 HB1          1.8290     0.8840    -0.5110 hx         1 NEA       0.098200
     26 HB2          1.8290    -0.8840    -0.5110 hx         1 NEA       0.098200
     27 HG1          1.6180     0.8840     1.9530 h1         1 NEA       0.048700
     28 HG2          1.6180    -0.8850     1.9520 h1         1 NEA       0.048700
     29 H5'1         3.6680    -0.8840     3.6710 h1         1 NEA       0.044700
     30 H5'2         3.6670     0.8850     3.6710 h1         1 NEA       0.044700
     31 H4'          6.0700    -0.8740     3.0270 h1         1 NEA       0.060700
     32 H3'          4.9660     0.0680     5.5470 h1         1 NEA       0.008700
     33 H3T          6.1210    -1.6790     5.9600 ho         1 NEA       0.393000
     34 H2'          6.1060     2.1110     5.5400 h1         1 NEA       0.022700
     35 HO'2         7.5510     1.3850     6.9910 ho         1 NEA       0.395000
     36 H1'          8.1600     0.9390     3.6040 h2         1 NEA       0.081700
     37 H8           5.7170     3.8290     3.0280 h5         1 NEA       0.027800
     38 H61          8.8360     7.5110     3.1300 hn         1 NEA       0.278300
     39 H62         10.5160     7.7070     3.5100 hn         1 NEA       0.278300
     40 H2          12.0380     3.5360     4.5850 h5         1 NEA       0.000100
     41 HN3         -0.3340     0.8140     0.4770 hn         1 NEA       0.224800
@<TRIPOS>BOND
     1     1     2 1   
     2     1    23 1   
     3     1    24 1   
     4     1    41 1   
     5     2     3 1   
     6     2    25 1   
     7     2    26 1   
     8     3     4 1   
     9     3    27 1   
    10     3    28 1   
    11     4     5 1   
    12     5     6 1   
    13     5    29 1   
    14     5    30 1   
    15     6     7 1   
    16     6     8 1   
    17     6    31 1   
    18     7    12 1   
    19     8     9 1   
    20     8    10 1   
    21     8    32 1   
    22     9    33 1   
    23    10    11 1   
    24    10    12 1   
    25    10    34 1   
    26    11    35 1   
    27    12    13 1   
    28    12    36 1   
    29    13    14 1   
    30    13    22 1   
    31    14    15 2   
    32    14    37 1   
    33    15    16 1   
    34    16    17 ar  
    35    16    22 ar  
    36    17    18 1   
    37    17    19 ar  
    38    18    38 1   
    39    18    39 1   
    40    19    20 ar  
    41    20    21 ar  
    42    20    40 1   
    43    21    22 ar  
@<TRIPOS>SUBSTRUCTURE
     1 NEA         1 TEMP              0 ****  ****    0 ROOT
