@<TRIPOS>MOLECULE
NEB
   27    27     1     0     0
SMALL
bcc


@<TRIPOS>ATOM
      1 C1           0.0000     0.0000     0.0000 c3         1 NEB      -0.079500
      2 N1          -0.4900    -0.0000    -1.3850 nz         1 NEB       0.090900
      3 C2           1.5300     0.0000     0.0000 c3         1 NEB      -0.036400
      4 C3           2.0400     0.0000     1.4430 c3         1 NEB      -0.079500
      5 N3           3.5080    -0.0000     1.4430 nz         1 NEB       0.090900
      6 C4           1.5300    -1.2500     2.1640 c3         1 NEB       0.159100
      7 O4           2.0060    -1.2500     3.5110 oh         1 NEB      -0.570300
      8 C5          -0.0000    -1.2500     2.1640 c3         1 NEB       0.170100
      9 O5          -0.4760    -2.4160     2.8370 oh         1 NEB      -0.551800
     10 C6          -0.5100    -1.2490     0.7220 c3         1 NEB       0.159100
     11 O6          -1.9390    -1.2490     0.7210 oh         1 NEB      -0.570300
     12 H1          -0.3590     0.8830     0.5140 hx         1 NEB       0.115700
     13 H11         -0.1020     0.7800    -1.8760 hn         1 NEB       0.237633
     14 H12         -1.4890     0.0690    -1.3850 hn         1 NEB       0.237633
     15 H13         -0.2150    -0.8500    -1.8360 hn         1 NEB       0.237633
     16 H21          1.8900     0.8860    -0.5090 hc         1 NEB       0.051700
     17 H22          1.8900    -0.8860    -0.5090 hc         1 NEB       0.051700
     18 H3           1.6740     0.8830     1.9530 hx         1 NEB       0.115700
     19 H31          3.8420     0.0680     2.3840 hn         1 NEB       0.237633
     20 H32          3.8420    -0.8490     1.0310 hn         1 NEB       0.237633
     21 H4           1.8880    -2.1320     1.6490 h1         1 NEB       0.034700
     22 HO4          2.2890    -2.1190     3.7440 ho         1 NEB       0.449000
     23 H5          -0.3590    -0.3630     2.6720 h1         1 NEB       0.047700
     24 HO5         -1.0000    -2.1600     3.5780 ho         1 NEB       0.442000
     25 H6          -0.1450    -2.1330     0.2120 h1         1 NEB       0.034700
     26 HO6         -2.2540    -2.1180     0.5340 ho         1 NEB       0.449000
     27 H33          3.8420     0.7770     0.9080 hn         1 NEB       0.237633
@<TRIPOS>BOND
     1     1     2 1   
     2     1     3 1   
     3     1    10 1   
     4     1    12 1   
     5     2    13 1   
     6     2    14 1   
     7     2    15 1   
     8     3     4 1   
     9     3    16 1   
    10     3    17 1   
    11     4     5 1   
    12     4     6 1   
    13     4    18 1   
    14     5    19 1   
    15     5    20 1   
    16     5    27 1   
    17     6     7 1   
    18     6     8 1   
    19     6    21 1   
    20     7    22 1   
    21     8     9 1   
    22     8    10 1   
    23     8    23 1   
    24     9    24 1   
    25    10    11 1   
    26    10    25 1   
    27    11    26 1   
@<TRIPOS>SUBSTRUCTURE
     1 NEB         1 TEMP              0 ****  ****    0 ROOT
