@<TRIPOS>MOLECULE
molecule
   38    40     1     0     0
SMALL
bcc


@<TRIPOS>ATOM
      1 C5'          0.0000     0.0000     0.0000 c          1 NEC       0.656100
      2 O5'         -0.6060     0.0670     1.0490 o          1 NEC      -0.580100
      3 N5'         -0.6740    -0.0730    -1.1650 ns         1 NEC      -0.585900
      4 C51         -2.1390    -0.0710    -1.1640 c3         1 NEC       0.112000
      5 C52         -2.6490    -0.1610    -2.6030 c3         1 NEC      -0.112100
      6 C4'          1.5070     0.0000     0.0000 c3         1 NEC       0.067100
      7 O4'          2.0150     0.0000     1.3510 os         1 NEC      -0.373600
      8 C3'          2.0520    -1.3230    -0.5950 c3         1 NEC       0.101100
      9 O3'          2.1530    -1.2450    -2.0180 oh         1 NEC      -0.580800
     10 C2'          3.4560    -1.4150     0.0550 c3         1 NEC       0.074100
     11 O2'          4.4560    -0.9340    -0.8450 oh         1 NEC      -0.568800
     12 C1'          3.3600    -0.5030     1.2930 c3         1 NEC       0.246800
     13 N9           3.6580    -1.2700     2.5040 na         1 NEC      -0.259000
     14 C8           2.7590    -1.9530     3.2670 cc         1 NEC       0.432700
     15 N7           3.3660    -2.5210     4.2690 nd         1 NEC      -0.588100
     16 C5           4.6900    -2.2380     4.2120 ca         1 NEC      -0.209200
     17 C6           5.8050    -2.5680     5.0010 ca         1 NEC       0.789200
     18 N6           5.6670    -3.3590     6.1280 nv         1 NEC      -0.982500
     19 N1           6.9960    -2.1050     4.6380 nb         1 NEC      -0.836000
     20 C2           7.1380    -1.3500     3.5650 ca         1 NEC       0.741900
     21 N3           6.1220    -1.0150     2.7970 nb         1 NEC      -0.798000
     22 C4           4.8930    -1.4380     3.0770 ca         1 NEC       0.471800
     23 HN5         -0.1740    -0.0790    -2.0320 hn         1 NEC       0.324500
     24 H511        -2.4980     0.8450    -0.7100 h1         1 NEC       0.054700
     25 H512        -2.5010    -0.9210    -0.5980 h1         1 NEC       0.054700
     26 H521        -3.7320    -0.1270    -2.6050 hc         1 NEC       0.043700
     27 H522        -2.3170    -1.0920    -3.0470 hc         1 NEC       0.043700
     28 H523        -2.2610     0.6710    -3.1770 hc         1 NEC       0.043700
     29 H4'          1.8940     0.8500    -0.5500 h1         1 NEC       0.095700
     30 H3'          1.4360    -2.1610    -0.2920 h1         1 NEC       0.062700
     31 HO3'         2.0770    -2.1100    -2.3870 ho         1 NEC       0.410000
     32 H2'          3.6660    -2.4350     0.3550 h1         1 NEC       0.062700
     33 HO2'         5.0710    -1.6240    -1.0290 ho         1 NEC       0.414000
     34 H1'          4.0550     0.3220     1.1940 h2         1 NEC       0.114700
     35 H8           1.6960    -2.0150     3.0690 h5         1 NEC       0.093800
     36 HN61         6.4720    -3.6040     6.6690 hn         1 NEC       0.451300
     37 HN62         4.7610    -3.6840     6.4030 hn         1 NEC       0.451300
     38 H2           8.1270    -0.9930     3.3050 h5         1 NEC       0.061100
@<TRIPOS>BOND
     1     1     2 2
     2     1     3 1
     3     1     6 1
     4     3     4 1
     5     3    23 1
     6     4     5 1
     7     4    24 1
     8     4    25 1
     9     5    26 1
    10     5    27 1
    11     5    28 1
    12     6     7 1
    13     6     8 1
    14     6    29 1
    15     7    12 1
    16     8     9 1
    17     8    10 1
    18     8    30 1
    19     9    31 1
    20    10    11 1
    21    10    12 1
    22    10    32 1
    23    11    33 1
    24    12    13 1
    25    12    34 1
    26    13    14 1
    27    13    22 1
    28    14    15 2
    29    14    35 1
    30    15    16 1
    31    16    17 ar
    32    16    22 ar
    33    17    18 1
    34    17    19 ar
    35    18    36 1
    36    18    37 1
    37    19    20 ar
    38    20    21 ar
    39    20    38 1
    40    21    22 ar
@<TRIPOS>SUBSTRUCTURE
     1 NEC         1 TEMP              0 ****  ****    0 ROOT
