@<TRIPOS>MOLECULE
NEE
   39    41     1     0     0
SMALL
bcc


@<TRIPOS>ATOM
      1 CAA        -0.1520   -0.4950   -0.0000 c3        1 NEE     -0.058800
      2 CAP         1.3040   -0.2210    0.0040 ca        1 NEE     -0.039800
      3 CAJ         1.9120    0.2630    1.1660 ca        1 NEE     -0.159000
      4 CAU         2.0890   -0.4330   -1.1420 ca        1 NEE     -0.008600
      5 CL1         1.3540   -1.0240   -2.5610 cl        1 NEE     -0.093400
      6 CAQ         3.4690   -0.1660   -1.1390 ca        1 NEE     -0.039800
      7 CAB         4.2960   -0.3860   -2.3490 c3        1 NEE     -0.058800
      8 CAK         4.0700    0.3110    0.0280 ca        1 NEE     -0.159000
      9 CAT         3.2850    0.5250    1.1680 ca        1 NEE      0.111100
     10 OAO         3.9430    1.1020    2.2510 os        1 NEE     -0.246200
     11 CAS         3.5300    0.7070    3.5200 ca        1 NEE      0.106100
     12 CAL         3.1430   -0.6040    3.8190 ca        1 NEE     -0.164000
     13 CAG         3.6270    1.6870    4.5200 ca        1 NEE     -0.133000
     14 CAD         3.3320    1.3320    5.8330 ca        1 NEE     -0.107000
     15 CAF         2.9360    0.0310    6.1460 ca        1 NEE     -0.129000
     16 CAR         2.8410   -0.9360    5.1430 ca        1 NEE     -0.094300
     17 CAM         2.3770   -2.3330    5.4540 c3        1 NEE      0.087600
     18 NAV         3.0090   -2.9580    6.5770 na        1 NEE     -0.209900
     19 CAH         2.5760   -2.9090    7.9080 cc        1 NEE     -0.262600
     20 CAE         3.5370   -3.6120    8.6560 cd        1 NEE      0.293200
     21 NAN         4.5520   -4.0750    7.8180 nd        1 NEE     -0.667000
     22 CAI         4.2230   -3.6650    6.5770 cc        1 NEE      0.396400
     23 H1         -0.6090   -0.2700    0.9940 hc        1 NEE      0.053533
     24 H2         -0.3440   -1.5710   -0.2430 hc        1 NEE      0.053533
     25 H3         -0.6610    0.1320   -0.7740 hc        1 NEE      0.053533
     26 H4          1.3170    0.4400    2.0740 ha        1 NEE      0.154000
     27 H5          3.9190    0.2440   -3.1940 hc        1 NEE      0.053533
     28 H6          4.2450   -1.4590   -2.6640 hc        1 NEE      0.053533
     29 H7          5.3660   -0.1220   -2.1610 hc        1 NEE      0.053533
     30 H8          5.1470    0.5330    0.0580 ha        1 NEE      0.154000
     31 H9          3.0780   -1.3530    3.0160 ha        1 NEE      0.149000
     32 H10         3.9430    2.7070    4.2580 ha        1 NEE      0.155000
     33 H11         3.4110    2.0870    6.6310 ha        1 NEE      0.141000
     34 H12         2.7060   -0.2350    7.1900 ha        1 NEE      0.143000
     35 H13         2.5480   -2.9920    4.5520 h1        1 NEE      0.068700
     36 H14         1.2650   -2.2940    5.6530 h1        1 NEE      0.068700
     37 H15         1.6540   -2.4150    8.2030 h4        1 NEE      0.175000
     38 H16         3.5510   -3.8060    9.7270 h4        1 NEE      0.042100
     39 H17         4.7970   -3.8500    5.6640 h5        1 NEE      0.062100
@<TRIPOS>BOND
     1    1    2 1   
     2    1   23 1   
     3    1   24 1   
     4    1   25 1   
     5    2    3 ar  
     6    2    4 ar  
     7    3    9 ar  
     8    3   26 1   
     9    4    5 1   
    10    4    6 ar  
    11    6    7 1   
    12    6    8 ar  
    13    7   27 1   
    14    7   28 1   
    15    7   29 1   
    16    8    9 ar  
    17    8   30 1   
    18    9   10 1   
    19   10   11 1   
    20   11   12 ar  
    21   11   13 ar  
    22   12   16 ar  
    23   12   31 1   
    24   13   14 ar  
    25   13   32 1   
    26   14   15 ar  
    27   14   33 1   
    28   15   16 ar  
    29   15   34 1   
    30   16   17 1   
    31   17   18 1   
    32   17   35 1   
    33   17   36 1   
    34   18   19 1   
    35   18   22 1   
    36   19   20 2   
    37   19   37 1   
    38   20   21 1   
    39   20   38 1   
    40   21   22 2   
    41   22   39 1   
@<TRIPOS>SUBSTRUCTURE
     1 NEE         1 TEMP              0 ****  ****    0 ROOT
