@<TRIPOS>MOLECULE
molecule
   39    41     1     0     0
SMALL
bcc


@<TRIPOS>ATOM
      1 CAA          0.0000     0.0000     0.0000 c3         1 NEE      -0.049800
      2 CAP          1.5080     0.0000     0.0000 ca         1 NEE      -0.034300
      3 CAJ          2.1980     0.0000     1.1970 ca         1 NEE      -0.182000
      4 CAU          2.1990    -0.0050    -1.1990 ca         1 NEE      -0.010600
      5 Cl1          1.3280    -0.0130    -2.7010 cl         1 NEE      -0.109400
      6 CAQ          3.5830    -0.0040    -1.2020 ca         1 NEE      -0.034300
      7 CAB          4.3330    -0.0100    -2.5080 c3         1 NEE      -0.049800
      8 CAK          4.2770     0.0020    -0.0070 ca         1 NEE      -0.182000
      9 CAT          3.5840     0.0000     1.1960 ca         1 NEE       0.144100
     10 OAO          4.2650    -0.0000     2.3720 os         1 NEE      -0.245200
     11 CAS          3.5470    -0.0090     3.5250 ca         1 NEE       0.101100
     12 CAL          3.1870    -1.2140     4.1110 ca         1 NEE      -0.118000
     13 CAG          3.1760     1.1880     4.1230 ca         1 NEE      -0.125000
     14 CAD          2.4450     1.1750     5.2950 ca         1 NEE      -0.118000
     15 CAF          2.0830    -0.0280     5.8720 ca         1 NEE      -0.108000
     16 CAR          2.4560    -1.2200     5.2830 ca         1 NEE      -0.111300
     17 CAM          2.0650    -2.5300     5.9190 c3         1 NEE       0.093600
     18 NAV          3.1100    -2.9490     6.8560 na         1 NEE      -0.187900
     19 CAH          3.1820    -2.6360     8.1860 cc         1 NEE      -0.278600
     20 CAE          4.2960    -3.2230     8.6650 cd         1 NEE       0.312200
     21 NAN          4.8880    -3.8760     7.6550 nd         1 NEE      -0.695000
     22 CAI          4.1810    -3.7220     6.5700 cc         1 NEE       0.397400
     23 H1          -0.3610     0.3030     0.9750 hc         1 NEE       0.051367
     24 H2          -0.3610    -0.9960    -0.2250 hc         1 NEE       0.051367
     25 H3          -0.3610     0.6930    -0.7500 hc         1 NEE       0.051367
     26 H4           1.6560    -0.0010     2.1350 ha         1 NEE       0.150000
     27 H5           4.0650     0.8690    -3.0820 hc         1 NEE       0.051367
     28 H6           5.3980    -0.0020    -2.3130 hc         1 NEE       0.051367
     29 H7           4.0750    -0.9000    -3.0690 hc         1 NEE       0.051367
     30 H8           5.3600     0.0020    -0.0100 ha         1 NEE       0.150000
     31 H9           3.4800    -2.1500     3.6500 ha         1 NEE       0.146000
     32 H10          3.4590     2.1300     3.6710 ha         1 NEE       0.149000
     33 H11          2.1530     2.1090     5.7610 ha         1 NEE       0.141000
     34 H12          1.5100    -0.0350     6.7920 ha         1 NEE       0.135000
     35 H13          1.1300    -2.4060     6.4530 h1         1 NEE       0.069200
     36 H14          1.9450    -3.2830     5.1510 h1         1 NEE       0.069200
     37 H15          2.4790    -2.0320     8.7470 h4         1 NEE       0.170000
     38 H16          4.6520    -3.1740     9.6870 h4         1 NEE       0.040100
     39 H17          4.4170    -4.1380     5.5980 h5         1 NEE       0.063100
@<TRIPOS>BOND
     1     5     4 1
     2     1     2 1
     3     4     2 ar
     4     4     6 ar
     5     2     3 ar
     6     7     6 1
     7     6     8 ar
     8    22    21 2
     9    22    18 1
    10     3     9 ar
    11    21    20 1
    12     8     9 ar
    13     9    10 1
    14    18    17 1
    15    18    19 1
    16    10    11 1
    17    12    11 ar
    18    12    16 ar
    19    17    16 1
    20    20    19 2
    21    11    13 ar
    22    16    15 ar
    23    13    14 ar
    24    15    14 ar
    25     1    23 1
    26     1    24 1
    27     1    25 1
    28     3    26 1
    29     7    27 1
    30     7    28 1
    31     7    29 1
    32     8    30 1
    33    12    31 1
    34    13    32 1
    35    14    33 1
    36    15    34 1
    37    17    35 1
    38    17    36 1
    39    19    37 1
    40    20    38 1
    41    22    39 1
@<TRIPOS>SUBSTRUCTURE
     1 NEE         1 TEMP              0 ****  ****    0 ROOT
