@<TRIPOS>MOLECULE
NEG
   38    37     1     0     0
SMALL
bcc


@<TRIPOS>ATOM
      1 O1           0.0000     0.0000     0.0000 o          1 NEG      -0.882300
      2 C8           1.3430     0.0000     0.0000 c          1 NEG       0.973600
      3 O2           1.9470     0.0000     1.0460 o          1 NEG      -0.882300
      4 C7           2.0960     0.0010    -1.3050 c3         1 NEG       0.022800
      5 N3           3.5400     0.0020    -1.0370 n3         1 NEG      -0.354600
      6 C9           4.3050     0.2160    -2.2730 c3         1 NEG       0.164100
      7 N2           3.9230    -1.1540    -0.4180 ns         1 NEG      -0.000300
      8 C6           4.4970    -1.1080     0.8010 c          1 NEG       0.573100
      9 O4           4.6730    -0.0400     1.3480 o          1 NEG      -0.649100
     10 C5           4.9200    -2.3830     1.4840 c3         1 NEG      -0.123400
     11 C4           5.5380    -2.0520     2.8440 c3         1 NEG      -0.045500
     12 N4           6.7770    -1.2880     2.6460 nz         1 NEG       0.055400
     13 C3           5.8530    -3.3500     3.5900 c3         1 NEG      -0.050400
     14 C2           6.3550    -3.0210     4.9970 c3         1 NEG       0.167100
     15 O3           5.3060    -2.4010     5.7440 oh         1 NEG      -0.544800
     16 C1           6.7870    -4.3100     5.6990 c3         1 NEG      -0.070200
     17 N1           7.2690    -3.9930     7.0500 nz         1 NEG       0.092400
     18 H71          1.8340    -0.8830    -1.8740 h1         1 NEG       0.024700
     19 H72          1.8340     0.8860    -1.8720 h1         1 NEG       0.024700
     20 H91          4.0590    -0.5600    -2.9890 h1         1 NEG       0.001367
     21 H92          5.3650     0.1810    -2.0520 h1         1 NEG       0.001367
     22 H93          4.0550     1.1840    -2.6890 h1         1 NEG       0.001367
     23 HN2          3.8080    -2.0330    -0.8830 hn         1 NEG       0.134500
     24 H51          4.0550    -3.0200     1.6250 hc         1 NEG       0.056700
     25 H52          5.6500    -2.8960     0.8700 hc         1 NEG       0.056700
     26 H4           4.8390    -1.4630     3.4250 hx         1 NEG       0.140700
     27 HN41         6.7010    -0.4040     3.1090 hn         1 NEG       0.229133
     28 HN42         7.5490    -1.7990     3.0280 hn         1 NEG       0.229133
     29 H31          4.9560    -3.9540     3.6580 hc         1 NEG       0.066200
     30 H32          6.6180    -3.8990     3.0530 hc         1 NEG       0.066200
     31 H2           7.1990    -2.3450     4.9310 h1         1 NEG      -0.013300
     32 HO3          5.6330    -1.6180     6.1550 ho         1 NEG       0.413000
     33 H11          7.5830    -4.7800     5.1330 hx         1 NEG       0.100700
     34 H12          5.9430    -4.9860     5.7660 hx         1 NEG       0.100700
     35 HN11         7.7230    -4.7950     7.4400 hn         1 NEG       0.229800
     36 HN12         6.4940    -3.7350     7.6290 hn         1 NEG       0.229800
     37 H43          6.9330    -1.1530     1.6670 hn         1 NEG       0.229133
     38 H13          7.9260    -3.2390     7.0020 hn         1 NEG       0.229800
@<TRIPOS>BOND
     1     1     2 1   
     2     2     3 1   
     3     2     4 1   
     4     4     5 1   
     5     4    18 1   
     6     4    19 1   
     7     5     6 1   
     8     5     7 1   
     9     6    20 1   
    10     6    21 1   
    11     6    22 1   
    12     7     8 1   
    13     7    23 1   
    14     8     9 2   
    15     8    10 1   
    16    10    11 1   
    17    10    24 1   
    18    10    25 1   
    19    11    12 1   
    20    11    13 1   
    21    11    26 1   
    22    12    27 1   
    23    12    28 1   
    24    12    37 1   
    25    13    14 1   
    26    13    29 1   
    27    13    30 1   
    28    14    15 1   
    29    14    16 1   
    30    14    31 1   
    31    15    32 1   
    32    16    17 1   
    33    16    33 1   
    34    16    34 1   
    35    17    35 1   
    36    17    36 1   
    37    17    38 1   
@<TRIPOS>SUBSTRUCTURE
     1 NEG         1 TEMP              0 ****  ****    0 ROOT
