@<TRIPOS>MOLECULE
NEH
   11    10     1     0     0
SMALL
bcc


@<TRIPOS>ATOM
      1 N            0.0000     0.0000     0.0000 nz         1 NEH       0.100400
      2 CA           1.4370     0.0000     0.0000 c3         1 NEH      -0.058200
      3 CB           1.9740     0.0000     1.3900 c3         1 NEH      -0.009100
      4 H           -0.3340    -0.0000    -0.9440 hn         1 NEH       0.222800
      5 HA2          1.7920    -0.8830    -0.5180 hx         1 NEH       0.086700
      6 HA3          1.7920     0.8830    -0.5180 hx         1 NEH       0.086700
      7 HB1          3.0570     0.0000     1.3590 hc         1 NEH       0.042033
      8 HB2          1.6280     0.8850     1.9110 hc         1 NEH       0.042033
      9 HB3          1.6280    -0.8850     1.9110 hc         1 NEH       0.042033
     10 HN1         -0.3340     0.8170     0.4720 hn         1 NEH       0.222800
     11 HN3         -0.3340    -0.8170     0.4720 hn         1 NEH       0.222800
@<TRIPOS>BOND
     1     1     2 1   
     2     1     4 1   
     3     1    10 1   
     4     1    11 1   
     5     2     3 1   
     6     2     5 1   
     7     2     6 1   
     8     3     7 1   
     9     3     8 1   
    10     3     9 1   
@<TRIPOS>SUBSTRUCTURE
     1 NEH         1 TEMP              0 ****  ****    0 ROOT
