@<TRIPOS>MOLECULE
NEI
   38    40     1     0     0
SMALL
bcc


@<TRIPOS>ATOM
      1 C52          0.0000     0.0000     0.0000 c3         1 NEI      -0.007100
      2 C51          1.5300     0.0000     0.0000 c3         1 NEI       0.051000
      3 N5'          2.0180     0.0000     1.3810 ns         1 NEI      -0.198900
      4 C5'          3.3440     0.0000     1.6270 c          1 NEI       0.563100
      5 O5'          4.1310    -0.0000     0.7050 o          1 NEI      -0.624100
      6 C4'          3.8460    -0.0010     3.0480 c3         1 NEI       0.108100
      7 O4'          5.2890    -0.0340     3.0770 os         1 NEI      -0.357600
      8 C3'          3.4980     1.3370     3.7500 c3         1 NEI       0.138100
      9 O3'          2.1880     1.2950     4.3210 oh         1 NEI      -0.560800
     10 C2'          4.5810     1.4120     4.8560 c3         1 NEI       0.114100
     11 O2'          4.0540     0.9530     6.1030 oh         1 NEI      -0.546800
     12 C1'          5.6950     0.4700     4.3610 c3         1 NEI       0.141800
     13 N9           6.9540     1.2070     4.2320 na         1 NEI       0.199000
     14 C8           7.4330     1.7910     3.0970 cc         1 NEI       0.261700
     15 N7           8.5790     2.3610     3.3400 nd         1 NEI      -0.496100
     16 C5           8.9060     2.1790     4.6420 ca         1 NEI      -0.237200
     17 C4           7.8640     1.4420     5.2310 ca         1 NEI       0.262800
     18 N3           7.9470     1.1210     6.5180 nb         1 NEI      -0.628000
     19 C2           8.9850     1.4980     7.2380 ca         1 NEI       0.861800
     20 I2           9.0510     0.9690     9.2630 i          1 NEI      -0.302800
     21 N1           9.9840     2.1960     6.7290 nb         1 NEI      -0.688000
     22 C6           9.9910     2.5570     5.4500 ca         1 NEI       0.588200
     23 N6          11.0420     3.2890     4.9270 nv         1 NEI      -0.478500
     24 H521        -0.3610    -0.0710    -1.0190 hc         1 NEI       0.008700
     25 H522        -0.3610    -0.8470     0.5710 hc         1 NEI       0.008700
     26 H523        -0.3610     0.9180     0.4480 hc         1 NEI       0.008700
     27 H511         1.8910     0.8850    -0.5110 h1         1 NEI       0.025700
     28 H512         1.8910    -0.8850    -0.5110 h1         1 NEI       0.025700
     29 HN5'         1.3680    -0.0450     2.1410 hn         1 NEI       0.185500
     30 H4'          3.4370    -0.8370     3.6020 h1         1 NEI       0.052700
     31 H3'          3.5980     2.1670     3.0610 h1         1 NEI       0.026700
     32 HO3'         1.8350     2.1680     4.3640 ho         1 NEI       0.394000
     33 H2'          4.9560     2.4240     4.9470 h1         1 NEI       0.022700
     34 HO2'         4.0160     1.6720     6.7120 ho         1 NEI       0.398000
     35 H1'          5.8140    -0.3530     5.0560 h2         1 NEI       0.072700
     36 H8           6.9350     1.7830     2.1350 h5         1 NEI       0.050800
     37 HN61        11.1090     3.4330     3.9380 hn         1 NEI       0.278300
     38 HN62        11.7430     3.6620     5.5350 hn         1 NEI       0.278300
@<TRIPOS>BOND
     1     1     2 1   
     2     1    24 1   
     3     1    25 1   
     4     1    26 1   
     5     2     3 1   
     6     2    27 1   
     7     2    28 1   
     8     3     4 1   
     9     3    29 1   
    10     4     5 2   
    11     4     6 1   
    12     6     7 1   
    13     6     8 1   
    14     6    30 1   
    15     7    12 1   
    16     8     9 1   
    17     8    10 1   
    18     8    31 1   
    19     9    32 1   
    20    10    11 1   
    21    10    12 1   
    22    10    33 1   
    23    11    34 1   
    24    12    13 1   
    25    12    35 1   
    26    13    14 1   
    27    13    17 1   
    28    14    15 2   
    29    14    36 1   
    30    15    16 1   
    31    16    17 ar  
    32    16    22 ar  
    33    17    18 ar  
    34    18    19 ar  
    35    19    20 1   
    36    19    21 ar  
    37    21    22 ar  
    38    22    23 1   
    39    23    37 1   
    40    23    38 1   
@<TRIPOS>SUBSTRUCTURE
     1 NEI         1 TEMP              0 ****  ****    0 ROOT
