@<TRIPOS>MOLECULE
molecule
   18    18     1     0     0
SMALL
bcc


@<TRIPOS>ATOM
      1 O1           0.0000     0.0000     0.0000 o          1 NEN      -0.587000
      2 N1           1.9870     0.0000     1.0900 n          1 NEN      -0.490400
      3 C1           2.0880     0.0000    -1.2330 c3         1 NEN      -0.177400
      4 C2           1.2120     0.0000     0.0000 c          1 NEN       0.705500
      5 C3           3.3020     0.0050     0.8370 c          1 NEN       0.705500
      6 C4           3.5190     0.0000    -0.6600 c3         1 NEN      -0.177400
      7 C6           1.2520    -1.4410     2.9240 c3         1 NEN      -0.113100
      8 H11          1.9150     0.8930    -1.8220 hc         1 NEN       0.086700
      9 H12          1.9150    -0.8920    -1.8220 hc         1 NEN       0.086700
     10 H41          4.0520     0.8910    -0.9690 hc         1 NEN       0.086700
     11 H42          4.0490    -0.8940    -0.9630 hc         1 NEN       0.086700
     12 H51          2.1290     0.5110     3.1140 h1         1 NEN       0.070200
     13 H52          0.4870     0.5120     2.4560 h1         1 NEN       0.070200
     14 H61          0.5500    -1.9470     2.2710 hc         1 NEN       0.047033
     15 H62          0.8800    -1.4660     3.9410 hc         1 NEN       0.047033
     16 H63          2.2120    -1.9410     2.8780 hc         1 NEN       0.047033
     17 C5           1.4420     0.0010     2.4500 c3         1 NEN       0.096000
     18 O2           4.1780     0.0080     1.6740 o          1 NEN      -0.587000
@<TRIPOS>BOND
     1     1     4 2
     2     2     4 1
     3     2     5 1
     4     2    17 1
     5     3     4 1
     6     3     6 1
     7     3     8 1
     8     3     9 1
     9    18     5 2
    10     5     6 1
    11     6    10 1
    12     6    11 1
    13    17     7 1
    14    17    12 1
    15    17    13 1
    16     7    14 1
    17     7    15 1
    18     7    16 1
@<TRIPOS>SUBSTRUCTURE
     1 NEN         1 TEMP              0 ****  ****    0 ROOT
