@<TRIPOS>MOLECULE
NEO
   29    30     1     0     0
SMALL
bcc


@<TRIPOS>ATOM
      1 N2         -0.2050    0.5990    0.0840 n         1 NEO     -0.512400
      2 C1          1.1960    0.7200   -0.0010 c         1 NEO      0.623000
      3 C10         1.9570    0.2390    1.1770 ca        1 NEO      0.157500
      4 N9          3.3150    0.3340    1.1620 nb        1 NEO     -0.554000
      5 C8          3.9590   -0.1170    2.2450 ca        1 NEO      0.207300
      6 C7          3.2420   -0.6730    3.3620 ca        1 NEO      0.376900
      7 N6          1.9190   -0.7750    3.4050 nb        1 NEO     -0.631000
      8 C5          1.2270   -0.3150    2.2930 ca        1 NEO      0.577000
      9 N4         -0.1640   -0.3980    2.3010 nc        1 NEO     -0.739700
     10 C3         -0.8270    0.0170    1.2060 cd        1 NEO      0.693800
     11 N13        -2.2190   -0.1860    1.1430 nh        1 NEO     -0.895800
     12 C16         5.4690   -0.0480    2.3110 c3        1 NEO      0.104800
     13 O21         5.8900    0.5270    3.5390 oh        1 NEO     -0.588800
     14 C26         6.0920   -1.4530    2.2160 c3        1 NEO      0.153100
     15 O22         5.5960   -2.2430    3.2830 oh        1 NEO     -0.601800
     16 C28         7.6200   -1.3410    2.2790 c3        1 NEO      0.091400
     17 O24         8.1130   -2.6720    2.2280 oh        1 NEO     -0.614800
     18 O11         1.6670    1.2200   -1.0320 o         1 NEO     -0.581500
     19 HN2        -0.7380    0.8580   -0.7190 hn        1 NEO      0.338500
     20 H7          3.8130   -1.0580    4.2320 h4        1 NEO      0.071100
     21 H131       -2.6390   -0.5100    1.9880 hn        1 NEO      0.428300
     22 H132       -2.7440    0.5040    0.6540 hn        1 NEO      0.428300
     23 H16         5.8770    0.5680    1.4570 h1        1 NEO      0.066700
     24 H21         5.4660    1.3920    3.6040 ho        1 NEO      0.409000
     25 H26         5.7820   -1.9180    1.2380 h1        1 NEO      0.060700
     26 H22         6.1440   -3.0400    3.3150 ho        1 NEO      0.426000
     27 H281        7.9260   -0.8400    3.2360 h1        1 NEO      0.047200
     28 H282        8.0040   -0.7580    1.4020 h1        1 NEO      0.047200
     29 H24         9.0500   -2.6300    2.4480 ho        1 NEO      0.411000
@<TRIPOS>BOND
     1    1    2 1   
     2    1   10 1   
     3    1   19 1   
     4    2    3 1   
     5    2   18 2   
     6    3    4 ar  
     7    3    8 ar  
     8    4    5 ar  
     9    5    6 ar  
    10    5   12 1   
    11    6    7 ar  
    12    6   20 1   
    13    7    8 ar  
    14    8    9 1   
    15    9   10 2   
    16   10   11 1   
    17   11   21 1   
    18   11   22 1   
    19   12   13 1   
    20   12   14 1   
    21   12   23 1   
    22   13   24 1   
    23   14   15 1   
    24   14   16 1   
    25   14   25 1   
    26   15   26 1   
    27   16   17 1   
    28   16   27 1   
    29   16   28 1   
    30   17   29 1   
@<TRIPOS>SUBSTRUCTURE
     1 NEO         1 TEMP              0 ****  ****    0 ROOT
