@<TRIPOS>MOLECULE
NEQ
   16    16     1     0     0
SMALL
bcc


@<TRIPOS>ATOM
      1 N1           0.0000     0.0000     0.0000 n          1 NEQ      -0.148400
      2 O1           2.0530     0.0010    -0.9850 o          1 NEQ      -0.597500
      3 O2          -1.6180     0.0060     1.6060 o          1 NEQ      -0.597500
      4 C1           1.3440     0.0000     0.0000 c          1 NEQ       0.613200
      5 C2           1.8110     0.0000     1.4040 cc         1 NEQ      -0.159700
      6 C3           0.7140    -0.0010     2.1770 cd         1 NEQ      -0.159700
      7 C4          -0.4520     0.0050     1.2670 c          1 NEQ       0.613200
      8 C5          -0.8450     0.0010    -1.1960 c3         1 NEQ       0.060000
      9 C6          -1.1390    -1.4410    -1.6140 c3         1 NEQ      -0.016100
     10 H21          2.6740     0.5900     1.6880 ha         1 NEQ       0.137000
     11 H31          0.6930     0.5860     3.0880 ha         1 NEQ       0.137000
     12 H51         -0.3310     0.5120    -2.0010 h1         1 NEQ       0.037700
     13 H52         -1.7760     0.5110    -0.9800 h1         1 NEQ       0.037700
     14 H61         -1.7710    -1.4400    -2.4940 hc         1 NEQ       0.015033
     15 H62         -1.6450    -1.9560    -0.8060 hc         1 NEQ       0.015033
     16 H63         -0.2080    -1.9490    -1.8390 hc         1 NEQ       0.015033
@<TRIPOS>BOND
     1     1     4 1   
     2     1     7 1   
     3     1     8 1   
     4     2     4 2   
     5     3     7 2   
     6     4     5 1   
     7     5     6 2   
     8     5    10 1   
     9     6     7 1   
    10     6    11 1   
    11     8     9 1   
    12     8    12 1   
    13     8    13 1   
    14     9    14 1   
    15     9    15 1   
    16     9    16 1   
@<TRIPOS>SUBSTRUCTURE
     1 NEQ         1 TEMP              0 ****  ****    0 ROOT
