@<TRIPOS>MOLECULE
molecule
   71    70     1     0     0
SMALL
bcc


@<TRIPOS>ATOM
      1 O1           0.0000     0.0000     0.0000 o          1 NER      -0.858300
      2 C1           1.3570     0.0000     0.0000 c          1 NER       0.893600
      3 C2           1.8740     0.0000     1.4170 c3         1 NER      -0.173400
      4 C3           3.4000    -0.0290     1.4680 c3         1 NER      -0.073400
      5 C4           3.9100     0.0090     2.9100 c3         1 NER      -0.081400
      6 C5           5.4400     0.0140     2.9550 c3         1 NER      -0.079400
      7 C6           6.0170     0.0300     4.3750 c3         1 NER      -0.078400
      8 C7           7.5470    -0.0060     4.4050 c3         1 NER      -0.078400
      9 C8           8.1300     0.0030     5.8220 c3         1 NER      -0.075400
     10 C9           9.6610     0.0340     5.9200 c3         1 NER      -0.072400
     11 C10         10.3500     1.2140     5.2270 c3         1 NER      -0.077400
     12 C11         11.8710     1.2160     5.4030 c3         1 NER      -0.074400
     13 C12         12.5660     2.4270     4.7710 c3         1 NER      -0.083400
     14 C13         14.0810     2.4470     5.0140 c3         1 NER      -0.082400
     15 C14         14.7790     3.6460     4.3560 c3         1 NER       0.093800
     16 C15         14.4230     5.0210     4.8630 c2         1 NER      -0.167200
     17 C16         13.9750     6.0590     4.1410 c2         1 NER      -0.426200
     18 C17         13.7460     6.0220     2.6570 c3         1 NER      -0.112200
     19 C18         12.3020     6.3620     2.2670 c3         1 NER      -0.089400
     20 C19         11.2720     5.3640     2.8080 c3         1 NER      -0.100400
     21 C20          9.8520     5.7350     2.3740 c3         1 NER      -0.073400
     22 C21          8.8330     4.7180     2.8920 c3         1 NER      -0.080400
     23 C22          7.4150     5.0660     2.4380 c3         1 NER      -0.079400
     24 C23          6.3960     4.0670     2.9860 c3         1 NER      -0.083400
     25 C24          4.9890     4.3890     2.5090 c3         1 NER      -0.091100
     26 O2           2.0360     0.0030    -1.0160 o          1 NER      -0.858300
     27 H21          1.4880    -0.8710     1.9320 hc         1 NER       0.031200
     28 H22          1.5210     0.8920     1.9200 hc         1 NER       0.031200
     29 H31          3.7890     0.8290     0.9320 hc         1 NER       0.039200
     30 H32          3.7540    -0.9350     0.9900 hc         1 NER       0.039200
     31 H41          3.5380     0.9040     3.3950 hc         1 NER       0.028700
     32 H42          3.5420    -0.8610     3.4390 hc         1 NER       0.028700
     33 H51          5.7980     0.8900     2.4280 hc         1 NER       0.034200
     34 H52          5.8030    -0.8700     2.4450 hc         1 NER       0.034200
     35 H61          5.6390    -0.8310     4.9130 hc         1 NER       0.033700
     36 H62          5.6810     0.9290     4.8770 hc         1 NER       0.033700
     37 H71          7.8830    -0.9020     3.8970 hc         1 NER       0.035700
     38 H72          7.9240     0.8580     3.8700 hc         1 NER       0.035700
     39 H81          7.7780    -0.8840     6.3360 hc         1 NER       0.036700
     40 H82          7.7420     0.8710     6.3410 hc         1 NER       0.036700
     41 H91         10.0450    -0.8820     5.4870 hc         1 NER       0.032700
     42 H92          9.9320     0.0530     6.9680 hc         1 NER       0.032700
     43 H101        10.1230     1.1760     4.1690 hc         1 NER       0.042700
     44 H102         9.9530     2.1360     5.6350 hc         1 NER       0.042700
     45 H111        12.2720     0.3150     4.9540 hc         1 NER       0.035700
     46 H112        12.0960     1.2040     6.4630 hc         1 NER       0.035700
     47 H121        12.3860     2.4120     3.7030 hc         1 NER       0.044200
     48 H122        12.1350     3.3300     5.1850 hc         1 NER       0.044200
     49 H131        14.5090     1.5350     4.6180 hc         1 NER       0.053700
     50 H132        14.2610     2.4830     6.0810 hc         1 NER       0.053700
     51 H141        14.5570     3.6160     3.2960 hc         1 NER       0.028700
     52 H142        15.8470     3.5140     4.4780 hc         1 NER       0.028700
     53 H15         15.1040     4.8250     4.0440 ha         1 NER       0.061000
     54 H16         13.2400     5.4330     3.6500 ha         1 NER       0.316000
     55 H171        14.4120     6.7330     2.1840 hc         1 NER       0.047200
     56 H172        13.9810     5.0290     2.2940 hc         1 NER       0.047200
     57 H181        12.0630     7.3470     2.6480 hc         1 NER       0.056200
     58 H182        12.2310     6.3810     1.1860 hc         1 NER       0.056200
     59 H191        11.3200     5.3570     3.8900 hc         1 NER       0.044700
     60 H192        11.5080     4.3750     2.4360 hc         1 NER       0.044700
     61 H201         9.6060     6.7150     2.7650 hc         1 NER       0.041700
     62 H202         9.8070     5.7630     1.2920 hc         1 NER       0.041700
     63 H211         8.8640     4.7050     3.9750 hc         1 NER       0.039700
     64 H212         9.0930     3.7340     2.5190 hc         1 NER       0.039700
     65 H221         7.1630     6.0590     2.7900 hc         1 NER       0.038700
     66 H222         7.3770     5.0530     1.3550 hc         1 NER       0.038700
     67 H231         6.6620     3.0710     2.6540 hc         1 NER       0.039200
     68 H232         6.4180     4.0970     4.0690 hc         1 NER       0.039200
     69 H241         4.8530     4.0110     1.5030 hc         1 NER       0.038367
     70 H242         4.8430     5.4630     2.5140 hc         1 NER       0.038367
     71 H243         4.2680     3.9240     3.1700 hc         1 NER       0.038367
@<TRIPOS>BOND
     1     1     2 1
     2     2     3 1
     3     2    26 1
     4     3     4 1
     5     3    27 1
     6     3    28 1
     7     4     5 1
     8     4    29 1
     9     4    30 1
    10     5     6 1
    11     5    31 1
    12     5    32 1
    13     6     7 1
    14     6    33 1
    15     6    34 1
    16     7     8 1
    17     7    35 1
    18     7    36 1
    19     8     9 1
    20     8    37 1
    21     8    38 1
    22     9    10 1
    23     9    39 1
    24     9    40 1
    25    10    11 1
    26    10    41 1
    27    10    42 1
    28    11    12 1
    29    11    43 1
    30    11    44 1
    31    12    13 1
    32    12    45 1
    33    12    46 1
    34    13    14 1
    35    13    47 1
    36    13    48 1
    37    14    15 1
    38    14    49 1
    39    14    50 1
    40    15    16 1
    41    15    51 1
    42    15    52 1
    43    16    17 2
    44    16    53 1
    45    17    18 1
    46    17    54 1
    47    18    19 1
    48    18    55 1
    49    18    56 1
    50    19    20 1
    51    19    57 1
    52    19    58 1
    53    20    21 1
    54    20    59 1
    55    20    60 1
    56    21    22 1
    57    21    61 1
    58    21    62 1
    59    22    23 1
    60    22    63 1
    61    22    64 1
    62    23    24 1
    63    23    65 1
    64    23    66 1
    65    24    25 1
    66    24    67 1
    67    24    68 1
    68    25    69 1
    69    25    70 1
    70    25    71 1
@<TRIPOS>SUBSTRUCTURE
     1 NER         1 TEMP              0 ****  ****    0 ROOT
