@<TRIPOS>MOLECULE
NER
   71    70     1     0     0
SMALL
bcc


@<TRIPOS>ATOM
      1 O1          0.0010    0.1330    0.3990 o         1 NER     -0.853800
      2 C1          1.0320    0.7600    0.7770 c         1 NER      0.907600
      3 C2          1.6330    0.3900    2.1450 c3        1 NER     -0.194400
      4 C3          3.1390    0.3230    2.0830 c3        1 NER     -0.066400
      5 C4          3.7600    0.1690    3.4560 c3        1 NER     -0.078400
      6 C5          5.2700    0.1290    3.3730 c3        1 NER     -0.082400
      7 C6          5.9070    0.0460    4.7430 c3        1 NER     -0.078400
      8 C7          7.4170    0.0320    4.6450 c3        1 NER     -0.080400
      9 C8          8.0620    0.0340    6.0140 c3        1 NER     -0.078400
     10 C9          9.5750    0.0060    5.9440 c3        1 NER     -0.076400
     11 C10        10.1550    1.3300    5.4950 c3        1 NER     -0.081400
     12 C11        11.6680    1.2990    5.4880 c3        1 NER     -0.077400
     13 C12        12.2290    2.5790    4.9050 c3        1 NER     -0.083400
     14 C13        13.7420    2.5920    4.9270 c3        1 NER     -0.073400
     15 C14        14.2990    3.8620    4.3120 c3        1 NER     -0.051200
     16 C15        13.9920    5.0630    5.1260 c2        1 NER     -0.166200
     17 C16        13.7010    6.2790    4.6570 c2        1 NER     -0.171200
     18 C17        13.6230    6.6810    3.2320 c3        1 NER     -0.047200
     19 C18        12.1880    6.8190    2.7560 c3        1 NER     -0.071400
     20 C19        11.5340    5.4710    2.5450 c3        1 NER     -0.085400
     21 C20        10.0700    5.6060    2.1880 c3        1 NER     -0.078400
     22 C21         9.4430    4.2510    1.9330 c3        1 NER     -0.079400
     23 C22         7.9620    4.3750    1.6450 c3        1 NER     -0.079400
     24 C23         7.3430    3.0280    1.3330 c3        1 NER     -0.079400
     25 C24         5.8670    3.1480    1.0540 c3        1 NER     -0.100100
     26 O2          1.5810    1.6810    0.1050 o         1 NER     -0.853800
     27 H21         1.3130    1.1720    2.8800 hc        1 NER      0.019200
     28 H22         1.2120   -0.5900    2.4820 hc        1 NER      0.019200
     29 H31         3.5190    1.2600    1.5930 hc        1 NER      0.043200
     30 H32         3.4490   -0.5370    1.4340 hc        1 NER      0.043200
     31 H41         3.4420    1.0240    4.1100 hc        1 NER      0.026200
     32 H42         3.3840   -0.7710    3.9390 hc        1 NER      0.026200
     33 H51         5.6370    1.0510    2.8430 hc        1 NER      0.037700
     34 H52         5.5890   -0.7520    2.7560 hc        1 NER      0.037700
     35 H61         5.5790    0.9230    5.3620 hc        1 NER      0.034200
     36 H62         5.5530   -0.8790    5.2690 hc        1 NER      0.034200
     37 H71         7.7470   -0.8760    4.0740 hc        1 NER      0.038200
     38 H72         7.7590    0.9290    4.0640 hc        1 NER      0.038200
     39 H81         7.7290    0.9410    6.5830 hc        1 NER      0.036700
     40 H82         7.7080   -0.8640    6.5870 hc        1 NER      0.036700
     41 H91         9.9030   -0.8040    5.2410 hc        1 NER      0.033200
     42 H92         9.9840   -0.2490    6.9580 hc        1 NER      0.033200
     43 H101        9.8000    2.1470    6.1770 hc        1 NER      0.043700
     44 H102        9.7810    1.5760    4.4650 hc        1 NER      0.043700
     45 H111       12.0490    1.1590    6.5340 hc        1 NER      0.035200
     46 H112       12.0260    0.4230    4.8860 hc        1 NER      0.035200
     47 H121       11.8420    3.4600    5.4830 hc        1 NER      0.045700
     48 H122       11.8660    2.6940    3.8480 hc        1 NER      0.045700
     49 H131       14.1320    1.7100    4.3530 hc        1 NER      0.036700
     50 H132       14.1050    2.4890    5.9830 hc        1 NER      0.036700
     51 H141       13.8880    3.9730    3.2720 hc        1 NER      0.047200
     52 H142       15.4160    3.7660    4.2220 hc        1 NER      0.047200
     53 H15        14.0210    4.8940    6.2170 ha        1 NER      0.116000
     54 H16        13.4800    7.0950    5.3670 ha        1 NER      0.114000
     55 H171       14.1420    7.6710    3.1130 hc        1 NER      0.041200
     56 H172       14.1650    5.9480    2.5760 hc        1 NER      0.041200
     57 H181       12.1770    7.3930    1.7920 hc        1 NER      0.039200
     58 H182       11.5990    7.4120    3.5040 hc        1 NER      0.039200
     59 H191       11.6390    4.8590    3.4820 hc        1 NER      0.042200
     60 H192       12.0710    4.9170    1.7300 hc        1 NER      0.042200
     61 H201        9.9610    6.2480    1.2740 hc        1 NER      0.038200
     62 H202        9.5260    6.1220    3.0210 hc        1 NER      0.038200
     63 H211        9.6000    3.5890    2.8270 hc        1 NER      0.036700
     64 H212        9.9550    3.7590    1.0650 hc        1 NER      0.036700
     65 H221        7.4430    4.8290    2.5300 hc        1 NER      0.038700
     66 H222        7.8040    5.0680    0.7780 hc        1 NER      0.038700
     67 H231        7.5080    2.3310    2.1980 hc        1 NER      0.033200
     68 H232        7.8600    2.5780    0.4440 hc        1 NER      0.033200
     69 H241        5.6790    3.8530    0.2090 hc        1 NER      0.045033
     70 H242        5.3230    3.5260    1.9540 hc        1 NER      0.045033
     71 H243        5.4360    2.1530    0.7820 hc        1 NER      0.045033
@<TRIPOS>BOND
     1    1    2 1   
     2    2    3 1   
     3    2   26 1   
     4    3    4 1   
     5    3   27 1   
     6    3   28 1   
     7    4    5 1   
     8    4   29 1   
     9    4   30 1   
    10    5    6 1   
    11    5   31 1   
    12    5   32 1   
    13    6    7 1   
    14    6   33 1   
    15    6   34 1   
    16    7    8 1   
    17    7   35 1   
    18    7   36 1   
    19    8    9 1   
    20    8   37 1   
    21    8   38 1   
    22    9   10 1   
    23    9   39 1   
    24    9   40 1   
    25   10   11 1   
    26   10   41 1   
    27   10   42 1   
    28   11   12 1   
    29   11   43 1   
    30   11   44 1   
    31   12   13 1   
    32   12   45 1   
    33   12   46 1   
    34   13   14 1   
    35   13   47 1   
    36   13   48 1   
    37   14   15 1   
    38   14   49 1   
    39   14   50 1   
    40   15   16 1   
    41   15   51 1   
    42   15   52 1   
    43   16   17 2   
    44   16   53 1   
    45   17   18 1   
    46   17   54 1   
    47   18   19 1   
    48   18   55 1   
    49   18   56 1   
    50   19   20 1   
    51   19   57 1   
    52   19   58 1   
    53   20   21 1   
    54   20   59 1   
    55   20   60 1   
    56   21   22 1   
    57   21   61 1   
    58   21   62 1   
    59   22   23 1   
    60   22   63 1   
    61   22   64 1   
    62   23   24 1   
    63   23   65 1   
    64   23   66 1   
    65   24   25 1   
    66   24   67 1   
    67   24   68 1   
    68   25   69 1   
    69   25   70 1   
    70   25   71 1   
@<TRIPOS>SUBSTRUCTURE
     1 NER         1 TEMP              0 ****  ****    0 ROOT
