@<TRIPOS>MOLECULE
NES
   28    27     1     0     0
SMALL
bcc


@<TRIPOS>ATOM
      1 N4           0.0000     0.0000     0.0000 n7         1 NES      -0.544200
      2 C7           1.4680     0.0000     0.0000 c3         1 NES       0.135800
      3 C8           1.9780     0.0000     1.4420 c3         1 NES      -0.047600
      4 S            3.7920    -0.0010     1.4420 s6         1 NES       0.947800
      5 O1S          4.1400    -0.0010     2.9240 o          1 NES      -0.661533
      6 O2S          4.3150    -1.2440     0.9970 o          1 NES      -0.661533
      7 O3S          4.3160     1.2420     0.9970 o          1 NES      -0.661533
      8 O1          -2.4590    -1.1650    -0.8330 oh         1 NES      -0.559467
      9 C2          -1.9500     0.0010    -1.4810 c3         1 NES       0.211400
     10 C3          -0.4230     0.0010    -1.4070 c3         1 NES       0.076200
     11 C4           0.1220    -1.2480    -2.1030 c3         1 NES       0.211400
     12 O5          -0.3880    -2.4140    -1.4530 oh         1 NES      -0.559467
     13 C6           0.1220     1.2500    -2.1020 c3         1 NES       0.211400
     14 O7          -0.3850     2.4170    -1.4520 oh         1 NES      -0.559467
     15 HN4         -0.3340     0.8300     0.4490 hn         1 NES       0.261800
     16 HC71         1.8290    -0.8840    -0.5110 h1         1 NES       0.017200
     17 HC72         1.8290     0.8840    -0.5110 h1         1 NES       0.017200
     18 HC81         1.6170     0.8850     1.9520 h1         1 NES       0.055700
     19 HC82         1.6170    -0.8840     1.9520 h1         1 NES       0.055700
     20 HO1         -3.3970    -1.1010    -0.7610 ho         1 NES       0.371667
     21 HC21        -2.2610     0.0010    -2.5190 h1         1 NES      -0.010300
     22 HC22        -2.3360     0.8850    -0.9890 h1         1 NES      -0.010300
     23 HC41         1.2040    -1.2480    -2.0500 h1         1 NES      -0.010300
     24 HC42        -0.1890    -1.2480    -3.1400 h1         1 NES      -0.010300
     25 HO5         -0.1000    -3.1830    -1.9160 ho         1 NES       0.371667
     26 HC61         1.2040     1.2490    -2.0490 h1         1 NES      -0.010300
     27 HC62        -0.1880     1.2500    -3.1390 h1         1 NES      -0.010300
     28 HO7         -0.1890     3.1770    -1.9750 ho         1 NES       0.371667
@<TRIPOS>BOND
     1     1     2 1   
     2     1    10 1   
     3     1    15 1   
     4     2     3 1   
     5     2    16 1   
     6     2    17 1   
     7     3     4 1   
     8     3    18 1   
     9     3    19 1   
    10     4     5 1   
    11     4     6 1   
    12     4     7 1   
    13     8     9 1   
    14     8    20 1   
    15     9    10 1   
    16     9    21 1   
    17     9    22 1   
    18    10    11 1   
    19    10    13 1   
    20    11    12 1   
    21    11    23 1   
    22    11    24 1   
    23    12    25 1   
    24    13    14 1   
    25    13    26 1   
    26    13    27 1   
    27    14    28 1   
@<TRIPOS>SUBSTRUCTURE
     1 NES         1 TEMP              0 ****  ****    0 ROOT
