@<TRIPOS>MOLECULE
molecule
   29    28     1     0     0
SMALL
bcc


@<TRIPOS>ATOM
      1 N1           0.0000     0.0000     0.0000 n4         1 NET      -0.573800
      2 C1           1.4690     0.0000     0.0000 c3         1 NET       0.096050
      3 C2           1.9790     0.0000     1.4430 c3         1 NET      -0.118100
      4 C3          -0.4900    -1.1990     0.6920 c3         1 NET       0.096050
      5 C4           0.0200    -2.4490    -0.0290 c3         1 NET      -0.118100
      6 C5          -0.4900     1.1990     0.6920 c3         1 NET       0.096050
      7 C6           0.0200     2.4490    -0.0290 c3         1 NET      -0.118100
      8 C7          -0.4890    -0.0000    -1.3850 c3         1 NET       0.096050
      9 C8          -2.0200     0.0000    -1.3860 c3         1 NET      -0.118100
     10 H11          1.8300     0.8840    -0.5110 hx         1 NET       0.102700
     11 H12          1.8300    -0.8840    -0.5110 hx         1 NET       0.102700
     12 H21          1.1370     0.0000     2.1240 hc         1 NET       0.070617
     13 H22          2.5810     0.8840     1.6130 hc         1 NET       0.070617
     14 H23          2.5810    -0.8850     1.6130 hc         1 NET       0.070617
     15 H31         -0.1290    -1.1990     1.7140 hx         1 NET       0.102700
     16 H32         -1.5730    -1.1990     0.6920 hx         1 NET       0.102700
     17 H41          0.6220    -3.0390     0.6530 hc         1 NET       0.070617
     18 H42         -0.8230    -3.0380    -0.3690 hc         1 NET       0.070617
     19 H43          0.6220    -2.1550    -0.8800 hc         1 NET       0.070617
     20 H51         -1.5730     1.1990     0.6920 hx         1 NET       0.102700
     21 H52         -0.1290     1.1990     1.7140 hx         1 NET       0.102700
     22 H61         -0.8220     3.0390    -0.3690 hc         1 NET       0.070617
     23 H62          0.6220     2.1550    -0.8800 hc         1 NET       0.070617
     24 H63          0.6220     3.0380     0.6530 hc         1 NET       0.070617
     25 H71         -0.1280     0.8840    -1.8950 hx         1 NET       0.102700
     26 H72         -0.1280    -0.8850    -1.8950 hx         1 NET       0.102700
     27 H81         -2.3800     0.8850    -1.8960 hc         1 NET       0.070617
     28 H82         -2.3820    -0.0000    -0.3640 hc         1 NET       0.070617
     29 H83         -2.3810    -0.8840    -1.8970 hc         1 NET       0.070617
@<TRIPOS>BOND
     1     1     2 1
     2     1     4 1
     3     1     6 1
     4     1     8 1
     5     2     3 1
     6     2    10 1
     7     2    11 1
     8     3    12 1
     9     3    13 1
    10     3    14 1
    11     4     5 1
    12     4    15 1
    13     4    16 1
    14     5    17 1
    15     5    18 1
    16     5    19 1
    17     6     7 1
    18     6    20 1
    19     6    21 1
    20     7    22 1
    21     7    23 1
    22     7    24 1
    23     8     9 1
    24     8    25 1
    25     8    26 1
    26     9    27 1
    27     9    28 1
    28     9    29 1
@<TRIPOS>SUBSTRUCTURE
     1 NET         1 TEMP              0 ****  ****    0 ROOT
