@<TRIPOS>MOLECULE
NEU
   29    30     1     0     0
SMALL
bcc


@<TRIPOS>ATOM
      1 N2         -0.1180    0.3360    0.0540 n         1 NEU     -0.511400
      2 C1          1.2880    0.3970    0.0080 c         1 NEU      0.622000
      3 C10         1.9860    0.1660    1.2960 ca        1 NEU      0.170500
      4 N9          3.3460    0.2060    1.3200 nb        1 NEU     -0.568000
      5 C8          3.9360   -0.0020    2.5040 ca        1 NEU      0.235300
      6 C7          3.1560   -0.2670    3.6830 ca        1 NEU      0.363900
      7 N6          1.8290   -0.3130    3.6890 nb        1 NEU     -0.625000
      8 C5          1.1940   -0.0880    2.4760 ca        1 NEU      0.572000
      9 N4         -0.1980   -0.1280    2.4410 nc        1 NEU     -0.737700
     10 C3         -0.8060    0.1140    1.2640 cd        1 NEU      0.692800
     11 N13        -2.2110    0.2090    1.2370 nh        1 NEU     -0.894800
     12 C16         5.4430    0.0220    2.6250 c3        1 NEU      0.111800
     13 O21         6.0220    1.1510    2.0050 oh        1 NEU     -0.586800
     14 C26         6.0450   -1.2800    2.0570 c3        1 NEU      0.112100
     15 O22         5.6330   -2.3290    2.9180 oh        1 NEU     -0.603800
     16 C28         7.5750   -1.1800    2.0280 c3        1 NEU      0.094400
     17 O24         8.0370   -2.4170    1.5060 oh        1 NEU     -0.614800
     18 O11         1.8180    0.6260   -1.0880 o         1 NEU     -0.581500
     19 HN2        -0.6150    0.5440   -0.7850 hn        1 NEU      0.338500
     20 H7          3.6570   -0.4590    4.6500 h4        1 NEU      0.046100
     21 H131       -2.6690   -0.0480    2.0860 hn        1 NEU      0.427800
     22 H132       -2.6580   -0.1140    0.4090 hn        1 NEU      0.427800
     23 H16         5.7270    0.1240    3.7130 h1        1 NEU      0.094700
     24 H21         5.7850    1.1380    1.0680 ho        1 NEU      0.422000
     25 H26         5.6620   -1.4700    1.0160 h1        1 NEU      0.064700
     26 H22         6.0890   -3.1260    2.6140 ho        1 NEU      0.427000
     27 H281        7.8920   -0.3300    1.3700 h1        1 NEU      0.044200
     28 H282        7.9730   -1.0250    3.0650 h1        1 NEU      0.044200
     29 H24         8.9990   -2.3710    1.4950 ho        1 NEU      0.411000
@<TRIPOS>BOND
     1    1    2 1
     2    1   10 1
     3    1   19 1
     4    2    3 1
     5    2   18 2
     6    3    4 ar
     7    3    8 ar
     8    4    5 ar
     9    5    6 ar
    10    5   12 1
    11    6    7 ar
    12    6   20 1
    13    7    8 ar
    14    8    9 1
    15    9   10 2
    16   10   11 1
    17   11   21 1
    18   11   22 1
    19   12   13 1
    20   12   14 1
    21   12   23 1
    22   13   24 1
    23   14   15 1
    24   14   16 1
    25   14   25 1
    26   15   26 1
    27   16   17 1
    28   16   27 1
    29   16   28 1
    30   17   29 1
@<TRIPOS>SUBSTRUCTURE
     1 NEU         1 TEMP              0 ****  ****    0 ROOT
