@<TRIPOS>MOLECULE
molecule
   34    37     1     0     0
SMALL
bcc


@<TRIPOS>ATOM
      1 N1           0.0000     0.0000     0.0000 nb         1 NEV      -0.684000
      2 C2           1.3190     0.0000     0.0000 ca         1 NEV       0.424200
      3 C3           2.0280     0.0000     1.1840 ca         1 NEV      -0.245300
      4 C4           1.3380     0.0220     2.3860 ca         1 NEV      -0.069300
      5 C4A         -0.0530     0.0360     2.3560 ca         1 NEV      -0.077700
      6 N5          -0.7590     0.1100     3.5550 ns         1 NEV      -0.450100
      7 C6          -1.8760    -0.5370     3.8540 c          1 NEV       0.728100
      8 C6A         -2.6100    -1.4360     2.9600 ca         1 NEV      -0.279900
      9 C7          -3.2200    -2.5880     3.4710 ca         1 NEV      -0.023000
     10 C8          -3.9730    -3.3690     2.6120 ca         1 NEV      -0.283300
     11 C9          -4.1020    -2.9940     1.2870 ca         1 NEV       0.460200
     12 N10         -3.5000    -1.9170     0.8220 nb         1 NEV      -0.718000
     13 C10         -2.7500    -1.1460     1.5940 ca         1 NEV       0.720200
     14 N11         -2.0920    -0.0570     1.0510 na         1 NEV      -0.805000
     15 C11         -0.7020     0.0090     1.1250 ca         1 NEV       0.669200
     16 C12          2.0790     0.0220     3.6980 c3         1 NEV      -0.050800
     17 O13         -2.3310    -0.3700     4.9690 o          1 NEV      -0.643500
     18 C14         -2.8490     1.0190     0.4060 cx         1 NEV       0.193500
     19 C15         -3.7120     0.6490    -0.8020 cx         1 NEV      -0.147900
     20 C16         -4.3730     0.9870     0.5360 cx         1 NEV      -0.147900
     21 H2           1.8530    -0.0170    -0.9420 h4         1 NEV       0.029100
     22 H3           3.1110     0.0000     1.1730 ha         1 NEV       0.144000
     23 HN5         -0.3850     0.7130     4.2600 hn         1 NEV       0.336500
     24 H7          -3.1050    -2.8620     4.5130 ha         1 NEV       0.158000
     25 H8          -4.4740    -4.2570     2.9790 ha         1 NEV       0.145000
     26 H9          -4.6920    -3.6060     0.6160 h4         1 NEV       0.028100
     27 H121         1.7280    -0.7990     4.3110 hc         1 NEV       0.051700
     28 H122         1.9020     0.9580     4.2130 hc         1 NEV       0.051700
     29 H123         3.1400    -0.0940     3.5140 hc         1 NEV       0.051700
     30 H14         -2.4180     2.0120     0.3670 h1         1 NEV       0.100700
     31 H151        -3.7130    -0.4010    -1.0720 hc         1 NEV       0.083700
     32 H152        -3.7940     1.4090    -1.5690 hc         1 NEV       0.083700
     33 H161        -4.8580     1.9540     0.5870 hc         1 NEV       0.083700
     34 H162        -4.7770     0.1440     1.0840 hc         1 NEV       0.083700
@<TRIPOS>BOND
     1     1     2 ar
     2     1    15 ar
     3     2     3 ar
     4     2    21 1
     5     3     4 ar
     6     3    22 1
     7     4     5 ar
     8     4    16 1
     9     5     6 1
    10     5    15 ar
    11     6     7 1
    12     6    23 1
    13     7     8 1
    14     7    17 2
    15     8     9 ar
    16     8    13 ar
    17     9    10 ar
    18     9    24 1
    19    10    11 ar
    20    10    25 1
    21    11    12 ar
    22    11    26 1
    23    12    13 ar
    24    13    14 1
    25    14    15 1
    26    14    18 1
    27    16    27 1
    28    16    28 1
    29    16    29 1
    30    18    19 1
    31    18    20 1
    32    18    30 1
    33    19    20 1
    34    19    31 1
    35    19    32 1
    36    20    33 1
    37    20    34 1
@<TRIPOS>SUBSTRUCTURE
     1 NEV         1 TEMP              0 ****  ****    0 ROOT
