@<TRIPOS>MOLECULE
NEW
   24    25     1     0     0
SMALL
bcc


@<TRIPOS>ATOM
      1 O2         -0.0420    0.1130   -0.1230 oh        1 NEW     -0.473100
      2 C9          1.3270    0.0950   -0.0610 ca        1 NEW      0.150100
      3 C8          2.0500    0.1320    1.1480 ca        1 NEW     -0.037600
      4 Cl2         1.2330    0.2030    2.6400 cl        1 NEW     -0.069400
      5 C10         2.0350    0.0350   -1.2810 ca        1 NEW     -0.037600
      6 Cl4         1.2250   -0.0100   -2.7710 cl        1 NEW     -0.069400
      7 C11         3.4300    0.0140   -1.2750 ca        1 NEW     -0.078500
      8 C12         4.1420    0.0520   -0.0690 cp        1 NEW     -0.056000
      9 C7          3.4440    0.1110    1.1420 ca        1 NEW     -0.078500
     10 C3          5.6030    0.0290   -0.0770 cp        1 NEW     -0.056000
     11 C2          6.3260    0.8590    0.7870 ca        1 NEW     -0.078500
     12 C4          6.2910   -0.8240   -0.9500 ca        1 NEW     -0.078500
     13 C5          7.6860   -0.8550   -0.9670 ca        1 NEW     -0.037600
     14 Cl5         8.4650   -1.9100   -2.0420 cl        1 NEW     -0.069400
     15 C6          8.4180   -0.0190   -0.0970 ca        1 NEW      0.150100
     16 O1          9.7850   -0.0880   -0.1540 oh        1 NEW     -0.473100
     17 C1          7.7200    0.8370    0.7780 ca        1 NEW     -0.037600
     18 Cl1         8.5670    1.8620    1.8420 cl        1 NEW     -0.069400
     19 HO2        -0.3890    0.1520    0.7830 ho        1 NEW      0.435000
     20 H11         3.9780   -0.0250   -2.2310 ha        1 NEW      0.157000
     21 H7          3.9970    0.1340    2.0950 ha        1 NEW      0.157000
     22 H2          5.7920    1.5380    1.4710 ha        1 NEW      0.157000
     23 H4          5.7230   -1.4850   -1.6260 ha        1 NEW      0.157000
     24 HO1        10.1520    0.5380    0.4930 ho        1 NEW      0.435000
@<TRIPOS>BOND
     1    1    2 1   
     2    1   19 1   
     3    2    3 ar  
     4    2    5 ar  
     5    3    4 1   
     6    3    9 ar  
     7    5    6 1   
     8    5    7 ar  
     9    7    8 ar  
    10    7   20 1   
    11    8    9 ar  
    12    8   10 1   
    13    9   21 1   
    14   10   11 ar  
    15   10   12 ar  
    16   11   17 ar  
    17   11   22 1   
    18   12   13 ar  
    19   12   23 1   
    20   13   14 1   
    21   13   15 ar  
    22   15   16 1   
    23   15   17 ar  
    24   16   24 1   
    25   17   18 1   
@<TRIPOS>SUBSTRUCTURE
     1 NEW         1 TEMP              0 ****  ****    0 ROOT
