@<TRIPOS>MOLECULE
molecule
   24    25     1     0     0
SMALL
bcc


@<TRIPOS>ATOM
      1 O2           0.0000     0.0000     0.0000 oh         1 NEW      -0.499100
      2 C9           1.3600     0.0000     0.0000 ca         1 NEW       0.122100
      3 C8           2.0530     0.0000     1.2040 ca         1 NEW       0.009400
      4 Cl2          1.1830     0.0010     2.7050 cl         1 NEW      -0.076150
      5 C10          2.0520    -0.0060    -1.2040 ca         1 NEW       0.009400
      6 Cl4          1.1820    -0.0060    -2.7060 cl         1 NEW      -0.076150
      7 C11          3.4330    -0.0010    -1.2070 ca         1 NEW      -0.099750
      8 C12          4.1310    -0.0010    -0.0010 cp         1 NEW      -0.032500
      9 C7           3.4340    -0.0000     1.2060 ca         1 NEW      -0.099750
     10 C3           5.6150    -0.0010    -0.0010 cp         1 NEW      -0.032500
     11 C2           6.3140     0.7740     0.9230 ca         1 NEW      -0.099750
     12 C4           6.3120    -0.7730    -0.9280 ca         1 NEW      -0.099750
     13 C5           7.6930    -0.7710    -0.9260 ca         1 NEW       0.009400
     14 Cl5          8.5630    -1.7320    -2.0810 cl         1 NEW      -0.076150
     15 C6           8.3860    -0.0020    -0.0010 ca         1 NEW       0.122100
     16 O1           9.7460    -0.0030    -0.0020 oh         1 NEW      -0.499100
     17 C1           7.6940     0.7670     0.9250 ca         1 NEW       0.009400
     18 Cl1          8.5650     1.7270     2.0790 cl         1 NEW      -0.076150
     19 HO2         -0.3140     0.8890    -0.0010 ho         1 NEW       0.430000
     20 H11          3.9740    -0.0040    -2.1460 ha         1 NEW       0.156250
     21 H7           3.9740    -0.0000     2.1450 ha         1 NEW       0.156250
     22 H2           5.7740     1.3740     1.6460 ha         1 NEW       0.156250
     23 H4           5.7730    -1.4250    -1.6050 ha         1 NEW       0.156250
     24 HO1         10.0600     0.6810    -0.5700 ho         1 NEW       0.430000
@<TRIPOS>BOND
     1     1     2 1
     2     1    19 1
     3     2     3 ar
     4     2     5 ar
     5     3     4 1
     6     3     9 ar
     7     5     6 1
     8     5     7 ar
     9     7     8 ar
    10     7    20 1
    11     8     9 ar
    12     8    10 1
    13     9    21 1
    14    10    11 ar
    15    10    12 ar
    16    11    17 ar
    17    11    22 1
    18    12    13 ar
    19    12    23 1
    20    13    14 1
    21    13    15 ar
    22    15    16 1
    23    15    17 ar
    24    16    24 1
    25    17    18 1
@<TRIPOS>SUBSTRUCTURE
     1 NEW         1 TEMP              0 ****  ****    0 ROOT
