@<TRIPOS>MOLECULE
NEZ
   41    44     1     0     0
SMALL
bcc


@<TRIPOS>ATOM
      1 C14        -0.0040   -0.0100    0.0340 c3        1 NEZ     -0.022100
      2 C5          1.4840   -0.0240    0.0230 ca        1 NEZ     -0.015300
      3 C4          2.2530   -0.0070    1.2160 ca        1 NEZ      0.183400
      4 N10         1.5900    0.0050    2.4470 nc        1 NEZ     -0.670100
      5 C9          2.3060    0.0620    3.5720 cd        1 NEZ      0.651800
      6 N23         1.6450    0.2150    4.8220 nh        1 NEZ     -0.880800
      7 N8          3.7210    0.0320    3.6030 n         1 NEZ     -0.504400
      8 C7          4.4530    0.0220    2.4080 c         1 NEZ      0.717100
      9 O22         5.6960    0.0320    2.4800 o         1 NEZ     -0.628500
     10 C3          3.6820   -0.0090    1.1510 ca        1 NEZ     -0.180600
     11 C2          4.3850   -0.0320   -0.0530 ca        1 NEZ     -0.063000
     12 C1          3.6360   -0.0560   -1.2220 ca        1 NEZ     -0.096200
     13 N11         3.9940   -0.0860   -2.5770 na        1 NEZ     -0.294300
     14 C12         2.7900   -0.0990   -3.3000 cc        1 NEZ      0.440700
     15 N13         1.6980   -0.0820   -2.5230 nd        1 NEZ     -0.577100
     16 C6          2.1780   -0.0540   -1.1920 ca        1 NEZ      0.104400
     17 C15        -0.5700   -1.4150    0.1830 c3        1 NEZ     -0.030100
     18 C16        -2.0560   -1.4120    0.0990 ca        1 NEZ     -0.078300
     19 C17        -2.6920   -1.1930   -1.1290 ca        1 NEZ     -0.124500
     20 C18        -4.0810   -1.2010   -1.2150 ca        1 NEZ     -0.131000
     21 C19        -4.8620   -1.4300   -0.0750 ca        1 NEZ     -0.082300
     22 C24        -6.3390   -1.4550   -0.1720 c3        1 NEZ     -0.051800
     23 C20        -4.2260   -1.6480    1.1520 ca        1 NEZ     -0.131000
     24 C21        -2.8360   -1.6390    1.2380 ca        1 NEZ     -0.124500
     25 H141       -0.3810    0.6350    0.8730 hc        1 NEZ      0.066200
     26 H142       -0.3890    0.4400   -0.9210 hc        1 NEZ      0.066200
     27 H231        1.9990   -0.3780    5.5420 hn        1 NEZ      0.409300
     28 H232        0.6480    0.1820    4.7500 hn        1 NEZ      0.409300
     29 HN8         4.2150    0.1300    4.4620 hn        1 NEZ      0.336500
     30 H2          5.4860   -0.0310   -0.0510 ha        1 NEZ      0.163000
     31 H11         4.9100   -0.0880   -2.9360 hn        1 NEZ      0.310700
     32 H12         2.7790   -0.1230   -4.3980 h5        1 NEZ      0.070800
     33 H151       -0.1550   -2.0680   -0.6320 hc        1 NEZ      0.053200
     34 H152       -0.2370   -1.8470    1.1630 hc        1 NEZ      0.053200
     35 H17        -2.0850   -1.0120   -2.0290 ha        1 NEZ      0.133500
     36 H18        -4.5710   -1.0260   -2.1840 ha        1 NEZ      0.128000
     37 H241       -6.8110   -1.1690    0.8000 hc        1 NEZ      0.042367
     38 H242       -6.7000   -0.7490   -0.9610 hc        1 NEZ      0.042367
     39 H243       -6.6870   -2.4840   -0.4400 hc        1 NEZ      0.042367
     40 H20        -4.8290   -1.8270    2.0540 ha        1 NEZ      0.128000
     41 H21        -2.3480   -1.8110    2.2090 ha        1 NEZ      0.133500
@<TRIPOS>BOND
     1    1    2 1
     2    1   17 1
     3    1   25 1
     4    1   26 1
     5    2    3 ar
     6    2   16 ar
     7    3    4 1
     8    3   10 ar
     9    4    5 2
    10    5    6 1
    11    5    7 1
    12    6   27 1
    13    6   28 1
    14    7    8 1
    15    7   29 1
    16    8    9 2
    17    8   10 1
    18   10   11 ar
    19   11   12 ar
    20   11   30 1
    21   12   13 1
    22   12   16 ar
    23   13   14 1
    24   13   31 1
    25   14   15 2
    26   14   32 1
    27   15   16 1
    28   17   18 1
    29   17   33 1
    30   17   34 1
    31   18   19 ar
    32   18   24 ar
    33   19   20 ar
    34   19   35 1
    35   20   21 ar
    36   20   36 1
    37   21   22 1
    38   21   23 ar
    39   22   37 1
    40   22   38 1
    41   22   39 1
    42   23   24 ar
    43   23   40 1
    44   24   41 1
@<TRIPOS>SUBSTRUCTURE
     1 NEZ         1 TEMP              0 ****  ****    0 ROOT
