@<TRIPOS>MOLECULE
molecule
   69    74     1     0     0
SMALL
bcc


@<TRIPOS>ATOM
      1 O11          0.0000     0.0000     0.0000 o          1 NF       -0.629000
      2 C11          1.2160     0.0000     0.0000 c          1 NF        0.731850
      3 N21          1.8850     0.0000     1.1680 n          1 NF       -0.477900
      4 C12          1.1220    -0.0020     2.4180 c3         1 NF        0.078000
      5 C31          3.2310    -0.0010     1.2300 c          1 NF        0.731850
      6 O31          3.7860    -0.0020     2.3110 o          1 NF       -0.629000
      7 CX3          4.0310     0.0010    -0.0030 ca         1 NF       -0.199350
      8 CXD          3.3600     0.0020    -1.2470 ca         1 NF        0.027000
      9 CXT          1.9470    -0.0040    -1.2760 ca         1 NF       -0.199350
     10 C91          1.2980     0.0040    -2.5010 ca         1 NF        0.005250
     11 C81          2.0330     0.0050    -3.6810 ca         1 NF       -0.156000
     12 C71          3.3990     0.0050    -3.6720 ca         1 NF       -0.034250
     13 CXN          4.0950     0.0040    -2.4510 ca         1 NF       -0.071000
     14 C61          5.5000     0.0040    -2.3900 ca         1 NF       -0.034250
     15 C51          6.1310     0.0040    -1.1790 ca         1 NF       -0.156000
     16 C41          5.4180     0.0010     0.0140 ca         1 NF        0.005250
     17 C22          0.8570    -1.4450     2.8530 c3         1 NF        0.067800
     18 N32          0.0910    -1.4460     4.1070 ny         1 NF       -0.729000
     19 C42         -0.1630    -2.8310     4.5230 c3         1 NF        0.110800
     20 C52         -0.9610    -2.8330     5.8300 c3         1 NF       -0.149400
     21 C62         -1.2260    -4.2750     6.2640 c3         1 NF        0.110800
     22 N72         -1.9910    -4.2760     7.5170 ny         1 NF       -0.729000
     23 C82         -2.2460    -5.6620     7.9340 c3         1 NF        0.067800
     24 C13         -4.4200    -7.6540     9.2300 c          1 NF        0.731850
     25 N23         -3.2970    -7.0450     9.6560 n          1 NF       -0.477900
     26 C92         -3.0430    -5.6630     9.2400 c3         1 NF        0.078000
     27 C33         -2.4020    -7.6560    10.4560 c          1 NF        0.731850
     28 O33         -1.4060    -7.0590    10.8160 o          1 NF       -0.629000
     29 CX5         -2.6230    -9.0420    10.8940 ca         1 NF       -0.199350
     30 CXF         -3.7880    -9.7140    10.4610 ca         1 NF        0.027000
     31 CXV         -4.7060    -9.0420     9.6220 ca         1 NF       -0.199350
     32 C93         -5.8470    -9.7100     9.2010 ca         1 NF        0.005250
     33 C83         -6.0770   -11.0210     9.6020 ca         1 NF       -0.156000
     34 C73         -5.2010   -11.6850    10.4120 ca         1 NF       -0.034250
     35 CXP         -4.0330   -11.0440    10.8610 ca         1 NF       -0.071000
     36 C63         -3.1000   -11.6850    11.6950 ca         1 NF       -0.034250
     37 C53         -1.9790   -11.0210    12.1040 ca         1 NF       -0.156000
     38 C43         -1.7280    -9.7100    11.7160 ca         1 NF        0.005250
     39 H112         1.6890     0.5090     3.1880 h1         1 NF        0.094450
     40 H122         0.1790     0.5090     2.2660 h1         1 NF        0.094450
     41 H91          0.2150     0.0040    -2.5390 ha         1 NF        0.162000
     42 H81          1.5100     0.0060    -4.6290 ha         1 NF        0.159000
     43 H71          3.9450     0.0060    -4.6080 ha         1 NF        0.158000
     44 H61          6.0820     0.0070    -3.3040 ha         1 NF        0.158000
     45 H51          7.2140     0.0060    -1.1480 ha         1 NF        0.159000
     46 H41          5.9470     0.0010     0.9590 ha         1 NF        0.162000
     47 H212         0.2900    -1.9550     2.0840 hx         1 NF        0.121700
     48 H222         1.8000    -1.9550     3.0060 hx         1 NF        0.121700
     49 H312         0.6150    -0.9740     4.8180 hn         1 NF        0.457800
     50 H322        -0.7800    -0.9740     3.9660 hn         1 NF        0.457800
     51 H412        -0.7300    -3.3410     3.7540 hx         1 NF        0.120700
     52 H422         0.7800    -3.3410     4.6760 hx         1 NF        0.120700
     53 H512        -0.3940    -2.3220     6.5990 hc         1 NF        0.084700
     54 H522        -1.9040    -2.3220     5.6770 hc         1 NF        0.084700
     55 H612        -1.7920    -4.7860     5.4940 hx         1 NF        0.120700
     56 H622        -0.2830    -4.7860     6.4160 hx         1 NF        0.120700
     57 H712        -1.4680    -3.8050     8.2280 hn         1 NF        0.457800
     58 H722        -2.8630    -3.8050     7.3760 hn         1 NF        0.457800
     59 H812        -2.8120    -6.1730     7.1650 hx         1 NF        0.121700
     60 H822        -1.3030    -6.1730     8.0870 hx         1 NF        0.121700
     61 H912        -3.9870    -5.1530     9.0880 h1         1 NF        0.094450
     62 H922        -2.4770    -5.1530    10.0100 h1         1 NF        0.094450
     63 H93         -6.5610    -9.2080     8.5580 ha         1 NF        0.162000
     64 H83         -6.9730   -11.5280     9.2640 ha         1 NF        0.159000
     65 H73         -5.4060   -12.7070    10.7080 ha         1 NF        0.158000
     66 H63         -3.2700   -12.7060    12.0130 ha         1 NF        0.158000
     67 H53         -1.2690   -11.5290    12.7460 ha         1 NF        0.159000
     68 H43         -0.8290    -9.2090    12.0570 ha         1 NF        0.162000
     69 O13         -5.1970    -7.0560     8.5110 o          1 NF       -0.629000
@<TRIPOS>BOND
     1     1     2 2
     2     2     3 1
     3     2     9 1
     4     3     4 1
     5     3     5 1
     6     4    17 1
     7     4    39 1
     8     4    40 1
     9     5     6 2
    10     5     7 1
    11     7     8 ar
    12     7    16 ar
    13     8     9 ar
    14     8    13 ar
    15     9    10 ar
    16    10    11 ar
    17    10    41 1
    18    11    12 ar
    19    11    42 1
    20    12    13 ar
    21    12    43 1
    22    13    14 ar
    23    14    15 ar
    24    14    44 1
    25    15    16 ar
    26    15    45 1
    27    16    46 1
    28    17    18 1
    29    17    47 1
    30    17    48 1
    31    18    19 1
    32    18    49 1
    33    18    50 1
    34    19    20 1
    35    19    51 1
    36    19    52 1
    37    20    21 1
    38    20    53 1
    39    20    54 1
    40    21    22 1
    41    21    55 1
    42    21    56 1
    43    22    23 1
    44    22    57 1
    45    22    58 1
    46    23    26 1
    47    23    59 1
    48    23    60 1
    49    69    24 2
    50    24    25 1
    51    24    31 1
    52    25    26 1
    53    25    27 1
    54    26    61 1
    55    26    62 1
    56    27    28 2
    57    27    29 1
    58    29    30 ar
    59    29    38 ar
    60    30    31 ar
    61    30    35 ar
    62    31    32 ar
    63    32    33 ar
    64    32    63 1
    65    33    34 ar
    66    33    64 1
    67    34    35 ar
    68    34    65 1
    69    35    36 ar
    70    36    37 ar
    71    36    66 1
    72    37    38 ar
    73    37    67 1
    74    38    68 1
@<TRIPOS>SUBSTRUCTURE
     1 NF          1 TEMP              0 ****  ****    0 ROOT
