@<TRIPOS>MOLECULE
molecule
   41    44     1     0     0
SMALL
bcc


@<TRIPOS>ATOM
      1 OAN          0.0000     0.0000     0.0000 o          1 NF1      -0.610000
      2 CAM          1.2160     0.0000     0.0000 c          1 NF1       0.721600
      3 CAE          1.9470     0.0000     1.2750 ca         1 NF1      -0.166600
      4 CAD          3.3610    -0.0010     1.2470 ca         1 NF1       0.013000
      5 CAF          1.2990     0.0000     2.5020 ca         1 NF1      -0.027500
      6 CAA          2.0350     0.0010     3.6810 ca         1 NF1      -0.151500
      7 CAB          3.4000     0.0000     3.6720 ca         1 NF1      -0.071500
      8 CAC          4.0960    -0.0010     2.4510 ca         1 NF1      -0.062000
      9 CAG          5.5000     0.0010     2.3890 ca         1 NF1      -0.071500
     10 CAH          6.1320     0.0000     1.1780 ca         1 NF1      -0.151500
     11 CAI          5.4180     0.0000    -0.0150 ca         1 NF1      -0.027500
     12 CAJ          4.0310    -0.0010     0.0030 ca         1 NF1      -0.166600
     13 CAK          3.2300    -0.0000    -1.2310 c          1 NF1       0.721600
     14 OAO          3.7860    -0.0050    -2.3120 o          1 NF1      -0.610000
     15 NAL          1.8850    -0.0050    -1.1690 n          1 NF1      -0.474400
     16 CAP          1.1210    -0.0050    -2.4190 c3         1 NF1       0.094000
     17 CAQ          0.8600    -1.4480    -2.8570 c3         1 NF1       0.139800
     18 NAR          0.0950    -1.4480    -4.1120 n7         1 NF1      -0.805200
     19 CAS         -0.1740    -2.8190    -4.5630 c3         1 NF1       0.146500
     20 CAT         -0.9600    -2.7780    -5.8490 cc         1 NF1       0.379700
     21 SAX         -2.6670    -2.7510    -5.9760 ss         1 NF1      -0.261800
     22 NAU         -0.4570    -2.7530    -7.0400 nd         1 NF1      -0.302000
     23 NAV         -1.2800    -2.7200    -7.9990 nd         1 NF1      -0.328000
     24 CAW         -2.5340    -2.7140    -7.6820 cc         1 NF1       0.389700
     25 CAY         -3.6860    -2.6750    -8.6540 c3         1 NF1      -0.109400
     26 H1           0.2160     0.0010     2.5400 ha         1 NF1       0.159000
     27 H2           1.5120     0.0030     4.6300 ha         1 NF1       0.140500
     28 H3           3.9470     0.0010     4.6070 ha         1 NF1       0.139000
     29 H4           6.0820     0.0000     3.3030 ha         1 NF1       0.139000
     30 H5           7.2150    -0.0000     1.1460 ha         1 NF1       0.140500
     31 H6           5.9460     0.0000    -0.9600 ha         1 NF1       0.159000
     32 H7           0.1760     0.5020    -2.2650 h1         1 NF1       0.084200
     33 H8           1.6860     0.5090    -3.1870 h1         1 NF1       0.084200
     34 H9           0.2950    -1.9620    -2.0890 h1         1 NF1       0.045700
     35 H10          1.8050    -1.9550    -3.0110 h1         1 NF1       0.045700
     36 H11         -0.7710    -0.9660    -3.9740 hn         1 NF1       0.354800
     37 H13          0.7640    -3.3350    -4.7290 h1         1 NF1       0.057700
     38 H14         -0.7460    -3.3430    -3.8070 h1         1 NF1       0.057700
     39 H15         -3.5730    -3.4700    -9.3800 hc         1 NF1       0.061033
     40 H16         -3.6970    -1.7190    -9.1640 hc         1 NF1       0.061033
     41 H17         -4.6170    -2.8070    -8.1160 hc         1 NF1       0.061033
@<TRIPOS>BOND
     1    25    24 1
     2    21    24 1
     3    21    20 1
     4    24    23 2
     5    20    19 1
     6    20    22 2
     7    23    22 1
     8    18    19 1
     9    18    17 1
    10    14    13 2
    11    16    17 1
    12    16    15 1
    13    13    15 1
    14    13    12 1
    15    15     2 1
    16    11    12 ar
    17    11    10 ar
    18    12     4 ar
    19     2     1 2
    20     2     3 1
    21    10     9 ar
    22     4     3 ar
    23     4     8 ar
    24     3     5 ar
    25     9     8 ar
    26     8     7 ar
    27     5     6 ar
    28     7     6 ar
    29     5    26 1
    30     6    27 1
    31     7    28 1
    32     9    29 1
    33    10    30 1
    34    11    31 1
    35    16    32 1
    36    16    33 1
    37    17    34 1
    38    17    35 1
    39    18    36 1
    40    19    37 1
    41    19    38 1
    42    25    39 1
    43    25    40 1
    44    25    41 1
@<TRIPOS>SUBSTRUCTURE
     1 NF1         1 TEMP              0 ****  ****    0 ROOT
