@<TRIPOS>MOLECULE
NF1
   41    44     1     0     0
SMALL
bcc


@<TRIPOS>ATOM
      1 OAN          0.0000     0.0000     0.0000 o          1 NF1      -0.649000
      2 CAM          1.2160     0.0000     0.0000 c          1 NF1       0.651100
      3 CAE          1.9470     0.0000     1.2750 ca         1 NF1      -0.183100
      4 CAD          3.3610    -0.0010     1.2470 ca         1 NF1       0.020000
      5 CAF          1.2990     0.0000     2.5020 ca         1 NF1       0.012500
      6 CAA          2.0350     0.0010     3.6810 ca         1 NF1      -0.130000
      7 CAB          3.4000     0.0000     3.6720 ca         1 NF1      -0.037500
      8 CAC          4.0960    -0.0010     2.4510 ca         1 NF1      -0.066000
      9 CAG          5.5000     0.0010     2.3890 ca         1 NF1      -0.037500
     10 CAH          6.1320     0.0000     1.1780 ca         1 NF1      -0.130000
     11 CAI          5.4180     0.0000    -0.0150 ca         1 NF1       0.012500
     12 CAJ          4.0310    -0.0010     0.0030 ca         1 NF1      -0.183100
     13 CAK          3.2300    -0.0000    -1.2310 c          1 NF1       0.651100
     14 OAO          3.7860    -0.0050    -2.3120 o          1 NF1      -0.649000
     15 NAL          1.8850    -0.0050    -1.1690 n          1 NF1      -0.099400
     16 CAP          1.1210    -0.0050    -2.4190 c3         1 NF1       0.023000
     17 CAQ          0.8600    -1.4480    -2.8570 c3         1 NF1       0.126800
     18 NAR          0.0950    -1.4480    -4.1120 n7         1 NF1      -0.567200
     19 CAS         -0.1740    -2.8190    -4.5630 c3         1 NF1       0.146500
     20 CAT         -0.9600    -2.7780    -5.8490 cc         1 NF1       0.379700
     21 SAX         -2.6670    -2.7510    -5.9760 ss         1 NF1      -0.343800
     22 NAU         -0.4570    -2.7530    -7.0400 nd         1 NF1      -0.256000
     23 NAV         -1.2800    -2.7200    -7.9990 nd         1 NF1      -0.291000
     24 CAW         -2.5340    -2.7140    -7.6820 cc         1 NF1       0.396700
     25 CAY         -3.6860    -2.6750    -8.6540 c3         1 NF1       0.007600
     26 H1           0.2160     0.0010     2.5400 ha         1 NF1       0.125000
     27 H2           1.5120     0.0030     4.6300 ha         1 NF1       0.110000
     28 H3           3.9470     0.0010     4.6070 ha         1 NF1       0.107000
     29 H4           6.0820     0.0000     3.3030 ha         1 NF1       0.107000
     30 H5           7.2150    -0.0000     1.1460 ha         1 NF1       0.110000
     31 H6           5.9460     0.0000    -0.9600 ha         1 NF1       0.125000
     32 H7           0.1760     0.5020    -2.2650 h1         1 NF1       0.054700
     33 H8           1.6860     0.5090    -3.1870 h1         1 NF1       0.054700
     34 H9           0.2950    -1.9620    -2.0890 h1         1 NF1       0.018200
     35 H10          1.8050    -1.9550    -3.0110 h1         1 NF1       0.018200
     36 H11         -0.7710    -0.9660    -3.9740 hn         1 NF1       0.255800
     37 H13          0.7640    -3.3350    -4.7290 h1         1 NF1       0.023700
     38 H14         -0.7460    -3.3430    -3.8070 h1         1 NF1       0.023700
     39 H15         -3.5730    -3.4700    -9.3800 hc         1 NF1       0.020367
     40 H16         -3.6970    -1.7190    -9.1640 hc         1 NF1       0.020367
     41 H17         -4.6170    -2.8070    -8.1160 hc         1 NF1       0.020367
@<TRIPOS>BOND
     1     1     2 2   
     2     2     3 1   
     3     2    15 1   
     4     3     4 ar  
     5     3     5 ar  
     6     4     8 ar  
     7     4    12 ar  
     8     5     6 ar  
     9     5    26 1   
    10     6     7 ar  
    11     6    27 1   
    12     7     8 ar  
    13     7    28 1   
    14     8     9 ar  
    15     9    10 ar  
    16     9    29 1   
    17    10    11 ar  
    18    10    30 1   
    19    11    12 ar  
    20    11    31 1   
    21    12    13 1   
    22    13    14 2   
    23    13    15 1   
    24    15    16 1   
    25    16    17 1   
    26    16    32 1   
    27    16    33 1   
    28    17    18 1   
    29    17    34 1   
    30    17    35 1   
    31    18    19 1   
    32    18    36 1   
    33    19    20 1   
    34    19    37 1   
    35    19    38 1   
    36    20    21 1   
    37    20    22 2   
    38    21    24 1   
    39    22    23 1   
    40    23    24 2   
    41    24    25 1   
    42    25    39 1   
    43    25    40 1   
    44    25    41 1   
@<TRIPOS>SUBSTRUCTURE
     1 NF1         1 TEMP              0 ****  ****    0 ROOT
