@<TRIPOS>MOLECULE
NF5
   38    40     1     0     0
SMALL
bcc


@<TRIPOS>ATOM
      1 Br1          0.0000     0.0000     0.0000 br         1 NF5      -0.122100
      2 C2           1.8910     0.0000     0.0000 ca         1 NF5       0.053100
      3 C3           2.5810     0.0000     1.2010 ca         1 NF5      -0.092500
      4 C4           3.9590     0.0000     1.2060 ca         1 NF5      -0.054500
      5 C5           4.6600    -0.0000    -0.0010 ca         1 NF5      -0.154600
      6 C6           3.9580    -0.0000    -1.2080 ca         1 NF5      -0.054500
      7 C7           2.5790    -0.0050    -1.2010 ca         1 NF5      -0.092500
      8 C8           6.1380     0.0010    -0.0010 c          1 NF5       0.582700
      9 O9           6.7460     0.0020     1.0510 o          1 NF5      -0.631100
     10 N10          6.8120     0.0010    -1.1690 ns         1 NF5      -0.033100
     11 C11          8.2050     0.1130    -1.1720 ca         1 NF5      -0.095400
     12 C12          8.9520    -0.5330    -2.1490 ca         1 NF5      -0.136000
     13 C13         10.3300    -0.4220    -2.1500 ca         1 NF5      -0.080000
     14 C14         10.9580     0.3350    -1.1780 ca         1 NF5      -0.098300
     15 C15         12.4690     0.4580    -1.1800 c3         1 NF5       0.028900
     16 C16         13.0150    -0.3050     0.0300 c3         1 NF5       0.153800
     17 N17         12.9950     0.5290     1.2210 n7         1 NF5      -0.590200
     18 C20         11.6880     0.8470     1.7730 c3         1 NF5       0.150800
     19 C21         10.9230     1.8000     0.8490 c3         1 NF5       0.023900
     20 C22         10.2210     0.9750    -0.2100 ca         1 NF5      -0.070300
     21 C23          8.8440     0.8760    -0.2010 ca         1 NF5      -0.086000
     22 H3           2.0360     0.0000     2.1370 ha         1 NF5       0.120000
     23 H4           4.4980     0.0000     2.1460 ha         1 NF5       0.118500
     24 H6           4.4960    -0.0020    -2.1490 ha         1 NF5       0.118500
     25 H7           2.0340    -0.0050    -2.1370 ha         1 NF5       0.120000
     26 HN10         6.3150    -0.0870    -2.0330 hn         1 NF5       0.171500
     27 H12          8.4540    -1.0990    -2.9260 ha         1 NF5       0.103000
     28 H13         10.9150    -0.9240    -2.9110 ha         1 NF5       0.106000
     29 H15         12.8670     0.0280    -2.0910 hc         1 NF5       0.026700
     30 H15A        12.7490     1.5020    -1.1090 hc         1 NF5       0.026700
     31 H16         14.0350    -0.6090    -0.1730 h1         1 NF5       0.006700
     32 H16A        12.4050    -1.1830     0.2010 h1         1 NF5       0.006700
     33 HN17        13.5640     0.1110     1.9300 hn         1 NF5       0.250800
     34 H20         11.1210    -0.0710     1.8660 h1         1 NF5       0.012200
     35 H20A        11.8290     1.3350     2.7300 h1         1 NF5       0.012200
     36 H21         11.6290     2.4670     0.3670 hc         1 NF5       0.031200
     37 H21A        10.1810     2.3340     1.4290 hc         1 NF5       0.031200
     38 H23          8.2620     1.4870     0.4770 ha         1 NF5       0.135000
@<TRIPOS>BOND
     1     1     2 1   
     2     2     3 ar  
     3     2     7 ar  
     4     3     4 ar  
     5     3    22 1   
     6     4     5 ar  
     7     4    23 1   
     8     5     6 ar  
     9     5     8 1   
    10     6     7 ar  
    11     6    24 1   
    12     7    25 1   
    13     8     9 2   
    14     8    10 1   
    15    10    11 1   
    16    10    26 1   
    17    11    12 ar  
    18    11    21 ar  
    19    12    13 ar  
    20    12    27 1   
    21    13    14 ar  
    22    13    28 1   
    23    14    15 1   
    24    14    20 ar  
    25    15    16 1   
    26    15    29 1   
    27    15    30 1   
    28    16    17 1   
    29    16    31 1   
    30    16    32 1   
    31    17    18 1   
    32    17    33 1   
    33    18    19 1   
    34    18    34 1   
    35    18    35 1   
    36    19    20 1   
    37    19    36 1   
    38    19    37 1   
    39    20    21 ar  
    40    21    38 1   
@<TRIPOS>SUBSTRUCTURE
     1 NF5         1 TEMP              0 ****  ****    0 ROOT
