@<TRIPOS>MOLECULE
molecule
   38    40     1     0     0
SMALL
bcc


@<TRIPOS>ATOM
      1 Br1          0.0000     0.0000     0.0000 br         1 NF5      -0.085100
      2 C2           1.8910     0.0000     0.0000 ca         1 NF5       0.002100
      3 C3           2.5810     0.0000     1.2010 ca         1 NF5      -0.112500
      4 C4           3.9590     0.0000     1.2060 ca         1 NF5      -0.085000
      5 C5           4.6600    -0.0000    -0.0010 ca         1 NF5      -0.138600
      6 C6           3.9580    -0.0000    -1.2080 ca         1 NF5      -0.085000
      7 C7           2.5790    -0.0050    -1.2010 ca         1 NF5      -0.112500
      8 C8           6.1380     0.0010    -0.0010 c          1 NF5       0.672700
      9 O9           6.7460     0.0020     1.0510 o          1 NF5      -0.587100
     10 N10          6.8120     0.0010    -1.1690 ns         1 NF5      -0.473100
     11 C11          8.2050     0.1130    -1.1720 ca         1 NF5       0.051600
     12 C12          8.9520    -0.5330    -2.1490 ca         1 NF5      -0.164000
     13 C13         10.3300    -0.4220    -2.1500 ca         1 NF5      -0.108000
     14 C14         10.9580     0.3350    -1.1780 ca         1 NF5      -0.096300
     15 C15         12.4690     0.4580    -1.1800 c3         1 NF5      -0.033100
     16 C16         13.0150    -0.3050     0.0300 c3         1 NF5       0.177800
     17 N17         12.9950     0.5290     1.2210 n7         1 NF5      -0.852200
     18 C20         11.6880     0.8470     1.7730 c3         1 NF5       0.175800
     19 C21         10.9230     1.8000     0.8490 c3         1 NF5      -0.036100
     20 C22         10.2210     0.9750    -0.2100 ca         1 NF5      -0.066300
     21 C23          8.8440     0.8760    -0.2010 ca         1 NF5      -0.117000
     22 H3           2.0360     0.0000     2.1370 ha         1 NF5       0.150000
     23 H4           4.4980     0.0000     2.1460 ha         1 NF5       0.147500
     24 H6           4.4960    -0.0020    -2.1490 ha         1 NF5       0.147500
     25 H7           2.0340    -0.0050    -2.1370 ha         1 NF5       0.150000
     26 HN10         6.3150    -0.0870    -2.0330 hn         1 NF5       0.324500
     27 H12          8.4540    -1.0990    -2.9260 ha         1 NF5       0.127000
     28 H13         10.9150    -0.9240    -2.9110 ha         1 NF5       0.132000
     29 H15         12.8670     0.0280    -2.0910 hc         1 NF5       0.057700
     30 H15A        12.7490     1.5020    -1.1090 hc         1 NF5       0.057700
     31 H16         14.0350    -0.6090    -0.1730 h1         1 NF5       0.032700
     32 H16A        12.4050    -1.1830     0.2010 h1         1 NF5       0.032700
     33 HN17        13.5640     0.1110     1.9300 hn         1 NF5       0.358800
     34 H20         11.1210    -0.0710     1.8660 h1         1 NF5       0.038200
     35 H20A        11.8290     1.3350     2.7300 h1         1 NF5       0.038200
     36 H21         11.6290     2.4670     0.3670 hc         1 NF5       0.061200
     37 H21A        10.1810     2.3340     1.4290 hc         1 NF5       0.061200
     38 H23          8.2620     1.4870     0.4770 ha         1 NF5       0.155000
@<TRIPOS>BOND
     1     1     2 1
     2     2     3 ar
     3     2     7 ar
     4     3     4 ar
     5     4     5 ar
     6     5     6 ar
     7     5     8 1
     8     6     7 ar
     9     8     9 2
    10     8    10 1
    11    10    11 1
    12    11    12 ar
    13    11    21 ar
    14    12    13 ar
    15    13    14 ar
    16    14    15 1
    17    14    20 ar
    18    15    16 1
    19    16    17 1
    20    17    18 1
    21    18    19 1
    22    19    20 1
    23    20    21 ar
    24     3    22 1
    25     4    23 1
    26     6    24 1
    27     7    25 1
    28    10    26 1
    29    12    27 1
    30    13    28 1
    31    15    29 1
    32    15    30 1
    33    16    31 1
    34    16    32 1
    35    17    33 1
    36    18    34 1
    37    18    35 1
    38    19    36 1
    39    19    37 1
    40    21    38 1
@<TRIPOS>SUBSTRUCTURE
     1 NF5         1 TEMP              0 ****  ****    0 ROOT
