@<TRIPOS>MOLECULE
NF6
   49    52     1     0     0
SMALL
bcc


@<TRIPOS>ATOM
      1 OAH          0.0000     0.0000     0.0000 o          1 NF6      -0.657500
      2 CAC          1.2160     0.0000     0.0000 c          1 NF6       0.654100
      3 CAD          1.9470     0.0000     1.2750 ca         1 NF6      -0.193600
      4 CAE          3.3610     0.0010     1.2480 ca         1 NF6       0.028000
      5 CAF          4.0300     0.0010     0.0020 ca         1 NF6      -0.188600
      6 CAM          5.4220     0.0010    -0.0240 ca         1 NF6       0.022000
      7 CAL          6.1430    -0.0000     1.1570 ca         1 NF6      -0.174000
      8 CAK          5.5080    -0.0010     2.3900 ca         1 NF6       0.080600
      9 NAZ          6.2520    -0.0010     3.5550 nh         1 NF6      -0.415000
     10 CBA          7.1140    -1.1890     3.6270 c3         1 NF6       0.179600
     11 CBB          7.0430     1.2310     3.6740 c3         1 NF6       0.179600
     12 CAJ          4.0940     0.0000     2.4510 ca         1 NF6      -0.055000
     13 CAP          3.4020     0.0020     3.6700 ca         1 NF6      -0.019000
     14 CAO          2.0250     0.0020     3.6800 ca         1 NF6      -0.142000
     15 CAN          1.2940     0.0000     2.5000 ca         1 NF6       0.017000
     16 CAG          3.2320     0.0010    -1.2270 c          1 NF6       0.649100
     17 OAI          3.7880     0.0010    -2.3090 o          1 NF6      -0.645500
     18 NAB          1.8870    -0.0050    -1.1680 n          1 NF6      -0.098400
     19 CAA          1.1250    -0.0050    -2.4190 c3         1 NF6       0.023000
     20 CAW          0.8650    -1.4470    -2.8580 c3         1 NF6       0.126800
     21 NAX          0.1010    -1.4470    -4.1120 n7         1 NF6      -0.567200
     22 CAY         -0.1670    -2.8190    -4.5640 c3         1 NF6       0.145500
     23 CAQ         -0.9520    -2.7790    -5.8500 cc         1 NF6       0.378700
     24 SAU         -2.6580    -2.7520    -5.9800 ss         1 NF6      -0.342800
     25 NAR         -0.4460    -2.7540    -7.0420 nd         1 NF6      -0.257000
     26 NAS         -1.2680    -2.7220    -8.0020 nd         1 NF6      -0.291000
     27 CAT         -2.5240    -2.7150    -7.6870 cc         1 NF6       0.396700
     28 CAV         -3.6750    -2.6770    -8.6590 c3         1 NF6       0.007600
     29 H1           5.9440     0.0020    -0.9730 ha         1 NF6       0.126000
     30 H2           7.2260     0.0020     1.1170 ha         1 NF6       0.118000
     31 H3           6.5740    -2.0500     3.2540 h1         1 NF6       0.007033
     32 H4           8.0000    -1.0300     3.0250 h1         1 NF6       0.007033
     33 H5           7.4040    -1.3620     4.6570 h1         1 NF6       0.007033
     34 H6           7.3240     1.3820     4.7100 h1         1 NF6       0.007033
     35 H7           7.9360     1.1470     3.0670 h1         1 NF6       0.007033
     36 H8           6.4530     2.0740     3.3340 h1         1 NF6       0.007033
     37 H9           3.9510     0.0040     4.6040 ha         1 NF6       0.124000
     38 H10          1.5010     0.0040     4.6280 ha         1 NF6       0.111000
     39 H11          0.2110     0.0000     2.5350 ha         1 NF6       0.124000
     40 H12          1.6910     0.5100    -3.1860 h1         1 NF6       0.054700
     41 H13          0.3000    -1.9620    -2.0910 h1         1 NF6       0.018200
     42 H14         -0.7650    -0.9660    -3.9750 hn         1 NF6       0.255800
     43 H15         -0.7400    -3.3440    -3.8090 h1         1 NF6       0.023700
     44 H16          0.7710    -3.3350    -4.7300 h1         1 NF6       0.023700
     45 H17         -3.6170    -3.5340    -9.3210 hc         1 NF6       0.020700
     46 H18         -4.6100    -2.7050    -8.1130 hc         1 NF6       0.020700
     47 H19         -3.6240    -1.7660    -9.2430 hc         1 NF6       0.020700
     48 H20          0.1800     0.5020    -2.2660 h1         1 NF6       0.054700
     49 H21          1.8100    -1.9540    -3.0110 h1         1 NF6       0.018200
@<TRIPOS>BOND
     1     1     2 2   
     2     2     3 1   
     3     2    18 1   
     4     3     4 ar  
     5     3    15 ar  
     6     4     5 ar  
     7     4    12 ar  
     8     5     6 ar  
     9     5    16 1   
    10     6     7 ar  
    11     6    29 1   
    12     7     8 ar  
    13     7    30 1   
    14     8     9 1   
    15     8    12 ar  
    16     9    10 1   
    17     9    11 1   
    18    10    31 1   
    19    10    32 1   
    20    10    33 1   
    21    11    34 1   
    22    11    35 1   
    23    11    36 1   
    24    12    13 ar  
    25    13    14 ar  
    26    13    37 1   
    27    14    15 ar  
    28    14    38 1   
    29    15    39 1   
    30    16    17 2   
    31    16    18 1   
    32    18    19 1   
    33    19    20 1   
    34    19    40 1   
    35    19    48 1   
    36    20    21 1   
    37    20    41 1   
    38    20    49 1   
    39    21    22 1   
    40    21    42 1   
    41    22    23 1   
    42    22    43 1   
    43    22    44 1   
    44    23    24 1   
    45    23    25 2   
    46    24    27 1   
    47    25    26 1   
    48    26    27 2   
    49    27    28 1   
    50    28    45 1   
    51    28    46 1   
    52    28    47 1   
@<TRIPOS>SUBSTRUCTURE
     1 NF6         1 TEMP              0 ****  ****    0 ROOT
