@<TRIPOS>MOLECULE
molecule
   52    54     1     0     0
SMALL
bcc


@<TRIPOS>ATOM
      1 C            0.0000     0.0000     0.0000 c          1 NFF       0.568900
      2 N            1.9950     1.1960    -0.6910 ns         1 NFF      -0.551900
      3 O           -0.6040     0.9070    -0.5180 o          1 NFF      -0.514100
      4 CA           1.5070     0.0000     0.0000 c3         1 NFF       0.008700
      5 CB           2.0170     0.0000     1.4420 c3         1 NFF       0.304600
      6 CAA         -1.9100     3.8800    -3.1220 c3         1 NFF      -0.093100
      7 CAI          6.7400     3.0370    -3.4060 ca         1 NFF      -0.140000
      8 CAJ          6.3140     1.8870    -2.7460 ca         1 NFF      -0.113000
      9 CAK          2.1960     4.5120    -3.8270 ca         1 NFF      -0.209000
     10 CAL          5.8460     3.9690    -3.8370 ca         1 NFF      -0.112000
     11 CAM          4.9890     1.6610    -2.5190 ca         1 NFF      -0.113000
     12 CAN          3.5210     4.7120    -4.0460 ca         1 NFF      -0.074000
     13 CAO         -0.4640     4.2600    -3.4430 c3         1 NFF       0.137400
     14 NAQ          1.5420    -1.2030     2.1800 n7         1 NFF      -0.757200
     15 SAS          1.2310     1.3440     2.4240 ss         1 NFF      -0.537200
     16 CAT          2.9820    -1.4250     4.1100 c          1 NFF       0.904600
     17 CAU          2.1240     1.1940    -2.0320 c          1 NFF       0.697700
     18 CAV          1.7240     3.3750    -3.1700 ca         1 NFF       0.175100
     19 CAW          2.6120     2.3950    -2.7260 ca         1 NFF      -0.169600
     20 CAX          4.4730     3.7720    -3.6150 ca         1 NFF      -0.072000
     21 CAY          4.0420     2.5950    -2.9530 ca         1 NFF       0.024000
     22 CBB          1.6200    -0.9950     3.6290 c3         1 NFF       0.044500
     23 CBC          1.3900     0.4750     4.0340 c3         1 NFF       0.089100
     24 H           -0.5410    -0.8360     0.4270 h4         1 NFF      -0.004800
     25 HN           2.2440     2.0110    -0.1650 hn         1 NFF       0.334500
     26 HAA          1.8680    -0.8840    -0.5110 h1         1 NFF       0.111700
     27 HB           3.0970     0.0750     1.4810 h2         1 NFF       0.129700
     28 HAAA        -2.1100     2.8790    -3.4860 hc         1 NFF       0.050033
     29 HAAB        -2.5820     4.5800    -3.6030 hc         1 NFF       0.050033
     30 HAAC        -2.0620     3.9110    -2.0500 hc         1 NFF       0.050033
     31 HAI          7.7990     3.1940    -3.5750 ha         1 NFF       0.123000
     32 HAJ          7.0450     1.1600    -2.4140 ha         1 NFF       0.133000
     33 HAK          1.4870     5.2550    -4.1720 ha         1 NFF       0.131000
     34 HAL          6.1920     4.8590    -4.3490 ha         1 NFF       0.124000
     35 HAM          4.6700     0.7620    -2.0040 ha         1 NFF       0.154000
     36 HAN          3.8490     5.6080    -4.5600 ha         1 NFF       0.125000
     37 HAO         -0.3450     4.3580    -4.5150 h1         1 NFF       0.028200
     38 HAOA        -0.2240     5.2020    -2.9650 h1         1 NFF       0.028200
     39 HNAQ         0.5950    -1.4000     1.9220 hn         1 NFF       0.328800
     40 HBB          0.8670    -1.6080     4.1080 h1         1 NFF       0.066700
     41 CAB          0.1050     0.6130     4.8520 c3         1 NFF      -0.073600
     42 CAC          2.5870     1.0120     4.8210 c3         1 NFF      -0.073600
     43 HAB         -0.7080     0.1170     4.3340 hc         1 NFF       0.044533
     44 HABA         0.2450     0.1570     5.8250 hc         1 NFF       0.044533
     45 HABB        -0.1330     1.6620     4.9770 hc         1 NFF       0.044533
     46 HAC          3.4970     0.8350     4.2610 hc         1 NFF       0.044533
     47 HACA         2.6480     0.5070     5.7770 hc         1 NFF       0.044533
     48 HACB         2.4650     2.0760     4.9830 hc         1 NFF       0.044533
     49 OAR          0.3930     3.2210    -2.9630 os         1 NFF      -0.298900
     50 OAE          3.1830    -1.6850     5.4110 o          1 NFF      -0.833800
     51 OAF          1.8340     0.2000    -2.6700 o          1 NFF      -0.613100
     52 OAG          3.8930    -1.5350     3.3240 o          1 NFF      -0.833800
@<TRIPOS>BOND
     1     3     1 2
     2     4     1 1
     3     1    24 1
     4    17     2 1
     5     2     4 1
     6     2    25 1
     7     4     5 1
     8     4    26 1
     9    15     5 1
    10     5    14 1
    11     5    27 1
    12    13     6 1
    13     6    28 1
    14     6    29 1
    15     6    30 1
    16    41    23 1
    17    41    43 1
    18    41    44 1
    19    41    45 1
    20    23    42 1
    21    42    46 1
    22    42    47 1
    23    42    48 1
    24    16    50 1
    25    17    51 2
    26    52    16 1
    27    10     7 ar
    28     7     8 ar
    29     7    31 1
    30     8    11 ar
    31     8    32 1
    32    12     9 ar
    33     9    18 ar
    34     9    33 1
    35    10    20 ar
    36    10    34 1
    37    21    11 ar
    38    11    35 1
    39    12    20 ar
    40    12    36 1
    41    13    49 1
    42    13    37 1
    43    13    38 1
    44    22    14 1
    45    14    39 1
    46    18    49 1
    47    23    15 1
    48    22    16 1
    49    19    17 1
    50    18    19 ar
    51    21    19 ar
    52    20    21 ar
    53    23    22 1
    54    22    40 1
@<TRIPOS>SUBSTRUCTURE
     1 NFF         1 TEMP              0 ****  ****    0 ROOT
