@<TRIPOS>MOLECULE
NFF
   52    54     1     0     0
SMALL
bcc


@<TRIPOS>ATOM
      1 C            0.0000     0.0000     0.0000 c          1 NFF       0.653900
      2 N            1.9950     1.1960    -0.6910 ns         1 NFF      -0.149900
      3 O           -0.6040     0.9070    -0.5180 o          1 NFF      -0.551100
      4 CA           1.5070     0.0000     0.0000 c3         1 NFF      -0.095300
      5 CB           2.0170     0.0000     1.4420 c3         1 NFF       0.252600
      6 CAA         -1.9100     3.8800    -3.1220 c3         1 NFF      -0.003100
      7 CAI          6.7400     3.0370    -3.4060 ca         1 NFF      -0.117000
      8 CAJ          6.3140     1.8870    -2.7460 ca         1 NFF      -0.085000
      9 CAK          2.1960     4.5120    -3.8270 ca         1 NFF      -0.201000
     10 CAL          5.8460     3.9690    -3.8370 ca         1 NFF      -0.083000
     11 CAM          4.9890     1.6610    -2.5190 ca         1 NFF      -0.093000
     12 CAN          3.5210     4.7120    -4.0460 ca         1 NFF      -0.041000
     13 CAO         -0.4640     4.2600    -3.4430 c3         1 NFF       0.203400
     14 NAQ          1.5420    -1.2030     2.1800 n7         1 NFF      -0.521200
     15 SAS          1.2310     1.3440     2.4240 ss         1 NFF      -0.540200
     16 CAT          2.9820    -1.4250     4.1100 c          1 NFF       0.989600
     17 CAU          2.1240     1.1940    -2.0320 c          1 NFF       0.617700
     18 CAV          1.7240     3.3750    -3.1700 ca         1 NFF       0.184100
     19 CAW          2.6120     2.3950    -2.7260 ca         1 NFF      -0.180600
     20 CAX          4.4730     3.7720    -3.6150 ca         1 NFF      -0.077000
     21 CAY          4.0420     2.5950    -2.9530 ca         1 NFF       0.034000
     22 CBB          1.6200    -0.9950     3.6290 c3         1 NFF      -0.012500
     23 CBC          1.3900     0.4750     4.0340 c3         1 NFF       0.107100
     24 H           -0.5410    -0.8360     0.4270 h4         1 NFF      -0.033800
     25 HN           2.2440     2.0110    -0.1650 hn         1 NFF       0.192500
     26 HAA          1.8680    -0.8840    -0.5110 h1         1 NFF       0.084700
     27 HB           3.0970     0.0750     1.4810 h2         1 NFF       0.103700
     28 HAAA        -2.1100     2.8790    -3.4860 hc         1 NFF       0.013367
     29 HAAB        -2.5820     4.5800    -3.6030 hc         1 NFF       0.013367
     30 HAAC        -2.0620     3.9110    -2.0500 hc         1 NFF       0.013367
     31 HAI          7.7990     3.1940    -3.5750 ha         1 NFF       0.097000
     32 HAJ          7.0450     1.1600    -2.4140 ha         1 NFF       0.104000
     33 HAK          1.4870     5.2550    -4.1720 ha         1 NFF       0.115000
     34 HAL          6.1920     4.8590    -4.3490 ha         1 NFF       0.098000
     35 HAM          4.6700     0.7620    -2.0040 ha         1 NFF       0.124000
     36 HAN          3.8490     5.6080    -4.5600 ha         1 NFF       0.096000
     37 HAO         -0.3450     4.3580    -4.5150 h1         1 NFF      -0.005800
     38 HAOA        -0.2240     5.2020    -2.9650 h1         1 NFF      -0.005800
     39 HNAQ         0.5950    -1.4000     1.9220 hn         1 NFF       0.235800
     40 HBB          0.8670    -1.6080     4.1080 h1         1 NFF       0.045700
     41 CAB          0.1050     0.6130     4.8520 c3         1 NFF       0.001900
     42 CAC          2.5870     1.0120     4.8210 c3         1 NFF       0.001900
     43 HAB         -0.7080     0.1170     4.3340 hc         1 NFF       0.019200
     44 HABA         0.2450     0.1570     5.8250 hc         1 NFF       0.019200
     45 HABB        -0.1330     1.6620     4.9770 hc         1 NFF       0.019200
     46 HAC          3.4970     0.8350     4.2610 hc         1 NFF       0.019200
     47 HACA         2.6480     0.5070     5.7770 hc         1 NFF       0.019200
     48 HACB         2.4650     2.0760     4.9830 hc         1 NFF       0.019200
     49 OAR          0.3930     3.2210    -2.9630 os         1 NFF      -0.277900
     50 OAE          3.1830    -1.6850     5.4110 o          1 NFF      -0.881300
     51 OAF          1.8340     0.2000    -2.6700 o          1 NFF      -0.660100
     52 OAG          3.8930    -1.5350     3.3240 o          1 NFF      -0.881300
@<TRIPOS>BOND
     1     1     3 2   
     2     1     4 1   
     3     1    24 1   
     4     2     4 1   
     5     2    17 1   
     6     2    25 1   
     7     4     5 1   
     8     4    26 1   
     9     5    14 1   
    10     5    15 1   
    11     5    27 1   
    12     6    13 1   
    13     6    28 1   
    14     6    29 1   
    15     6    30 1   
    16     7     8 ar  
    17     7    10 ar  
    18     7    31 1   
    19     8    11 ar  
    20     8    32 1   
    21     9    12 ar  
    22     9    18 ar  
    23     9    33 1   
    24    10    20 ar  
    25    10    34 1   
    26    11    21 ar  
    27    11    35 1   
    28    12    20 ar  
    29    12    36 1   
    30    13    37 1   
    31    13    38 1   
    32    13    49 1   
    33    14    22 1   
    34    14    39 1   
    35    15    23 1   
    36    16    22 1   
    37    16    50 1   
    38    16    52 1   
    39    17    19 1   
    40    17    51 2   
    41    18    19 ar  
    42    18    49 1   
    43    19    21 ar  
    44    20    21 ar  
    45    22    23 1   
    46    22    40 1   
    47    23    41 1   
    48    23    42 1   
    49    41    43 1   
    50    41    44 1   
    51    41    45 1   
    52    42    46 1   
    53    42    47 1   
    54    42    48 1   
@<TRIPOS>SUBSTRUCTURE
     1 NFF         1 TEMP              0 ****  ****    0 ROOT
