@<TRIPOS>MOLECULE
NFG
   37    38     1     0     0
SMALL
bcc


@<TRIPOS>ATOM
      1 C1           0.0000     0.0000     0.0000 c3         1 NFG       0.320900
      2 O1          -0.4730    -0.0310    -1.3480 os         1 NFG      -0.214900
      3 C2           1.5300     0.0000     0.0000 c3         1 NFG       0.135600
      4 F            1.9990    -1.1410    -0.6580 f          1 NFG      -0.208300
      5 C3           2.0290     0.0000     1.4500 c3         1 NFG       0.142100
      6 O3           3.4500     0.1490     1.4680 oh         1 NFG      -0.570800
      7 C4           1.3760     1.1710     2.1930 c3         1 NFG       0.149100
      8 O4           1.7110     1.1040     3.5800 oh         1 NFG      -0.577800
      9 C5          -0.1430     1.0820     2.0270 c3         1 NFG       0.154100
     10 C6          -0.8060     2.2270     2.7950 c3         1 NFG       0.224400
     11 O6          -2.2260     2.0770     2.7420 oh         1 NFG      -0.594800
     12 O5          -0.4840     1.1760     0.6460 os         1 NFG      -0.383600
     13 C11         -1.8270    -0.1490    -1.2860 ca         1 NFG       0.270100
     14 C12         -2.5730    -0.1990    -2.4550 ca         1 NFG      -0.507200
     15 N1          -1.8970    -0.1300    -3.7700 no         1 NFG       1.055200
     16 O11         -2.5510    -0.1840    -4.7950 o          1 NFG      -0.439000
     17 O12         -0.6850    -0.0180    -3.8260 o          1 NFG      -0.439000
     18 C13         -3.9470    -0.3260    -2.3900 ca         1 NFG       0.112000
     19 C14         -4.5790    -0.3910    -1.1620 ca         1 NFG      -0.510200
     20 N2          -6.0520    -0.5210    -1.0950 no         1 NFG       1.054200
     21 O21         -6.6100    -0.5790    -0.0140 o          1 NFG      -0.445000
     22 O22         -6.7070    -0.5700    -2.1210 o          1 NFG      -0.445000
     23 C15         -3.8380    -0.3360     0.0040 ca         1 NFG       0.089000
     24 C16         -2.4630    -0.2150    -0.0550 ca         1 NFG      -0.248000
     25 H1          -0.3580    -0.8730     0.5320 h2         1 NFG       0.028700
     26 H2           1.8900     0.8880    -0.5050 h1         1 NFG       0.065700
     27 H3           1.7510    -0.9310     1.9280 h1         1 NFG       0.026700
     28 H3O1         3.8480    -0.6640     1.7310 ho         1 NFG       0.407000
     29 H4           1.7300     2.1050     1.7740 h1         1 NFG       0.032700
     30 H4O1         2.4090     1.7110     3.7650 ho         1 NFG       0.408000
     31 H5          -0.4900     0.1330     2.4170 h1         1 NFG       0.030700
     32 H62         -0.4790     2.2060     3.8270 h1         1 NFG       0.006700
     33 H61         -0.5260     3.1730     2.3460 h1         1 NFG       0.006700
     34 H6          -2.6310     2.7210     3.2980 ho         1 NFG       0.400000
     35 H13         -4.5310    -0.3650    -3.3010 ha         1 NFG       0.159000
     36 H15         -4.3360    -0.3870     0.9650 ha         1 NFG       0.137000
     37 H16         -1.8820    -0.1710     0.8580 ha         1 NFG       0.170000
@<TRIPOS>BOND
     1     1     2 1   
     2     1     3 1   
     3     1    12 1   
     4     1    25 1   
     5     2    13 1   
     6     3     4 1   
     7     3     5 1   
     8     3    26 1   
     9     5     6 1   
    10     5     7 1   
    11     5    27 1   
    12     6    28 1   
    13     7     8 1   
    14     7     9 1   
    15     7    29 1   
    16     8    30 1   
    17     9    10 1   
    18     9    12 1   
    19     9    31 1   
    20    10    11 1   
    21    10    32 1   
    22    10    33 1   
    23    11    34 1   
    24    13    14 ar  
    25    13    24 ar  
    26    14    15 1   
    27    14    18 ar  
    28    15    16 1   
    29    15    17 1   
    30    18    19 ar  
    31    18    35 1   
    32    19    20 1   
    33    19    23 ar  
    34    20    21 1   
    35    20    22 1   
    36    23    24 ar  
    37    23    36 1   
    38    24    37 1   
@<TRIPOS>SUBSTRUCTURE
     1 NFG         1 TEMP              0 ****  ****    0 ROOT
