@<TRIPOS>MOLECULE
NFH
   51    50     1     0     0
SMALL
bcc


@<TRIPOS>ATOM
      1 C            0.0000     0.0000     0.0000 c          1 NFH       0.579100
      2 N            3.4770     1.1910    -0.8270 n          1 NFH      -0.047300
      3 O           -0.6060     0.4980     0.9250 o          1 NFH      -0.648100
      4 C1          -2.6860    -1.5810    -1.9090 c          1 NFH       0.570100
      5 N1          -0.6750    -0.5480    -1.0290 ns         1 NFH      -0.175900
      6 N2          -3.9370    -2.0310    -1.6830 ns         1 NFH      -0.186900
      7 CA           1.5070     0.0000     0.0000 c3         1 NFH      -0.149700
      8 CB           2.0180     0.0000     1.4420 c3         1 NFH      -0.020400
      9 CG           1.6330    -1.3160     2.1200 c3         1 NFH      -0.060700
     10 CM           4.0550     0.3650    -1.7220 c          1 NFH       0.610900
     11 OM           5.2640     0.3160    -1.8090 o          1 NFH      -0.628100
     12 CN           2.0170     1.2490    -0.7220 c3         1 NFH       0.063000
     13 ON           4.2800     2.0020     0.0100 oh         1 NFH      -0.432100
     14 CA1         -2.1340    -0.4450    -1.0870 c3         1 NFH      -0.047300
     15 CB1         -2.5260     0.8870    -1.7310 c3         1 NFH      -0.073000
     16 CD1          2.3740    -2.4730     1.4450 c3         1 NFH       0.003400
     17 CD2          2.0150    -1.2600     3.6000 c3         1 NFH       0.003400
     18 CG1         -2.0010     0.9340    -3.1670 c3         1 NFH      -0.007767
     19 CG2         -4.0510     1.0190    -1.7420 c3         1 NFH      -0.007767
     20 CG3         -1.9200     2.0390    -0.9280 c3         1 NFH      -0.007767
     21 CN2         -4.5180    -3.0520    -2.5580 c3         1 NFH       0.083300
     22 HN1         -0.1810    -1.0600    -1.7340 hn         1 NFH       0.199500
     23 H2          -4.4480    -1.7060    -0.8860 hn         1 NFH       0.178500
     24 HA           1.8680    -0.8850    -0.5110 hc         1 NFH       0.044700
     25 HB           1.5740     0.8270     1.9830 hc         1 NFH       0.040200
     26 HBA          3.0960     0.1050     1.4430 hc         1 NFH       0.040200
     27 HG           0.5650    -1.4710     2.0280 hc         1 NFH       0.034700
     28 HM           3.4400    -0.2170    -2.3980 h5         1 NFH      -0.010800
     29 HN           1.7310     2.1310    -0.1620 h1         1 NFH       0.033200
     30 HNA          1.5850     1.2950    -1.7140 h1         1 NFH       0.033200
     31 HON          4.6340     2.7180    -0.4910 ho         1 NFH       0.397000
     32 HA1         -2.5400    -0.4940    -0.0840 h1         1 NFH       0.063700
     33 HD1          1.8740    -2.7320     0.5200 hc         1 NFH       0.003867
     34 HD1A         2.3800    -3.3320     2.1050 hc         1 NFH       0.003867
     35 HD1B         3.3940    -2.1740     1.2330 hc         1 NFH       0.003867
     36 HD2          1.6880    -2.1680     4.0920 hc         1 NFH       0.003867
     37 HD2A         1.5380    -0.4050     4.0640 hc         1 NFH       0.003867
     38 HD2B         3.0910    -1.1680     3.6920 hc         1 NFH       0.003867
     39 HG1         -0.9200     0.8520    -3.1590 hc         1 NFH       0.013367
     40 HG1A        -2.4200     0.1110    -3.7320 hc         1 NFH       0.013367
     41 HG1B        -2.2880     1.8720    -3.6260 hc         1 NFH       0.013367
     42 HG2         -4.4500     0.6700    -0.7970 hc         1 NFH       0.013367
     43 HG2A        -4.4590     0.4230    -2.5490 hc         1 NFH       0.013367
     44 HG2B        -4.3220     2.0580    -1.8870 hc         1 NFH       0.013367
     45 HG3         -2.3820     2.9710    -1.2280 hc         1 NFH       0.013367
     46 HG3A        -2.0940     1.8730     0.1290 hc         1 NFH       0.013367
     47 HG3B        -0.8540     2.0880    -1.1150 hc         1 NFH       0.013367
     48 HN2         -4.5010    -2.7010    -3.5830 h1         1 NFH       0.012033
     49 HN2A        -5.5410    -3.2440    -2.2590 h1         1 NFH       0.012033
     50 H29         -3.9400    -3.9650    -2.4800 h1         1 NFH       0.012033
     51 O1          -2.0060    -2.0910    -2.7730 o          1 NFH      -0.652100
@<TRIPOS>BOND
     1     1     3 2   
     2     1     5 1   
     3     1     7 1   
     4     2    10 1   
     5     2    12 1   
     6     2    13 1   
     7     4     6 1   
     8     4    14 1   
     9     4    51 2   
    10     5    14 1   
    11     5    22 1   
    12     6    21 1   
    13     6    23 1   
    14     7     8 1   
    15     7    12 1   
    16     7    24 1   
    17     8     9 1   
    18     8    25 1   
    19     8    26 1   
    20     9    16 1   
    21     9    17 1   
    22     9    27 1   
    23    10    11 2   
    24    10    28 1   
    25    12    29 1   
    26    12    30 1   
    27    13    31 1   
    28    14    15 1   
    29    14    32 1   
    30    15    18 1   
    31    15    19 1   
    32    15    20 1   
    33    16    33 1   
    34    16    34 1   
    35    16    35 1   
    36    17    36 1   
    37    17    37 1   
    38    17    38 1   
    39    18    39 1   
    40    18    40 1   
    41    18    41 1   
    42    19    42 1   
    43    19    43 1   
    44    19    44 1   
    45    20    45 1   
    46    20    46 1   
    47    20    47 1   
    48    21    48 1   
    49    21    49 1   
    50    21    50 1   
@<TRIPOS>SUBSTRUCTURE
     1 NFH         1 TEMP              0 ****  ****    0 ROOT
