@<TRIPOS>MOLECULE
NFK
   29    29     1     0     0
SMALL
bcc


@<TRIPOS>ATOM
      1 O            0.0000     0.0000     0.0000 o          1 NFK      -0.814800
      2 C            1.2080     0.0000     0.0000 c          1 NFK       0.952600
      3 OXT          1.8790     0.0060    -1.1620 o          1 NFK      -0.814800
      4 CA           1.9610     0.0000     1.3060 c3         1 NFK      -0.189500
      5 N            1.0790     0.4730     2.3800 nz         1 NFK       0.069400
      6 CB           2.4340    -1.4200     1.6210 c3         1 NFK      -0.114400
      7 CG           3.2910    -1.3990     2.8620 c          1 NFK       0.655700
      8 OD1          3.5030    -0.3520     3.4350 o          1 NFK      -0.649100
      9 CD2          3.8690    -2.6470     3.3740 ca         1 NFK      -0.255600
     10 CAJ          3.5450    -3.8720     2.7780 ca         1 NFK      -0.031000
     11 CAH          4.0910    -5.0390     3.2650 ca         1 NFK      -0.132000
     12 CAG          4.9610    -5.0080     4.3430 ca         1 NFK      -0.027000
     13 CAI          5.2920    -3.8090     4.9430 ca         1 NFK      -0.130000
     14 CAO          4.7580    -2.6200     4.4630 ca         1 NFK       0.002600
     15 NAL          5.0940    -1.4110     5.0620 ns         1 NFK      -0.076100
     16 CAF          6.3350    -1.2250     5.5540 c          1 NFK       0.608900
     17 OAB          7.1860    -2.0740     5.3920 o          1 NFK      -0.629100
     18 H2           2.8190     0.6570     1.2270 hx         1 NFK       0.100700
     19 H3           0.6540    -0.3120     2.8330 hn         1 NFK       0.216133
     20 H4           0.3670     1.0600     1.9930 hn         1 NFK       0.216133
     21 H6           3.0130    -1.8020     0.7890 hc         1 NFK       0.076700
     22 H7           1.5750    -2.0580     1.7870 hc         1 NFK       0.076700
     23 H8           2.8650    -3.9020     1.9350 ha         1 NFK       0.113000
     24 H9           3.8390    -5.9850     2.8030 ha         1 NFK       0.114000
     25 H10          5.3830    -5.9320     4.7200 ha         1 NFK       0.108000
     26 H11          5.9750    -3.7950     5.7840 ha         1 NFK       0.145000
     27 H12          4.3990    -0.7010     5.1790 hn         1 NFK       0.203500
     28 H13          6.5740    -0.3150     6.0910 h5         1 NFK      -0.011800
     29 HN3          1.6120     1.0070     3.0380 hn         1 NFK       0.216133
@<TRIPOS>BOND
     1     1     2 1   
     2     2     3 1   
     3     2     4 1   
     4     4     5 1   
     5     4     6 1   
     6     4    18 1   
     7     5    19 1   
     8     5    20 1   
     9     5    29 1   
    10     6     7 1   
    11     6    21 1   
    12     6    22 1   
    13     7     8 2   
    14     7     9 1   
    15     9    10 ar  
    16     9    14 ar  
    17    10    11 ar  
    18    10    23 1   
    19    11    12 ar  
    20    11    24 1   
    21    12    13 ar  
    22    12    25 1   
    23    13    14 ar  
    24    13    26 1   
    25    14    15 1   
    26    15    16 1   
    27    15    27 1   
    28    16    17 2   
    29    16    28 1   
@<TRIPOS>SUBSTRUCTURE
     1 NFK         1 TEMP              0 ****  ****    0 ROOT
