@<TRIPOS>MOLECULE
molecule
   28    29     1     0     0
SMALL
bcc


@<TRIPOS>ATOM
      1 F3           0.0000     0.0000     0.0000 f          1 NFL      -0.232633
      2 C15          1.3990     0.0000     0.0000 c3         1 NFL       0.672200
      3 F1           1.8650     0.0000     1.3190 f          1 NFL      -0.232633
      4 F2           1.8650     1.1440    -0.6590 f          1 NFL      -0.232633
      5 C9           1.9020    -1.2290    -0.7110 ca         1 NFL      -0.164300
      6 C10          3.2600    -1.4500    -0.8320 ca         1 NFL      -0.138000
      7 C11          3.7230    -2.5800    -1.4930 ca         1 NFL       0.190600
      8 C12          2.8170    -3.4910    -2.0210 ca         1 NFL      -0.116000
      9 C13          1.4600    -3.2670    -1.8920 ca         1 NFL      -0.124000
     10 C14          1.0040    -2.1380    -1.2370 ca         1 NFL      -0.142000
     11 N2           5.0960    -2.8020    -1.6220 nu         1 NFL      -0.762300
     12 C1           5.5920    -3.4280    -2.7510 ca         1 NFL       0.693200
     13 N1           4.7820    -3.7030    -3.7610 nb         1 NFL      -0.790000
     14 C2           6.9560    -3.7600    -2.8250 ca         1 NFL      -0.273900
     15 C6           7.8640    -3.4510    -1.7070 c          1 NFL       0.899200
     16 O8           9.1880    -3.6680    -1.8340 o          1 NFL      -0.831800
     17 O7           7.4190    -3.0010    -0.6700 o          1 NFL      -0.831800
     18 C3           7.4360    -4.3910    -3.9780 ca         1 NFL      -0.030000
     19 C4           6.5420    -4.6580    -5.0000 ca         1 NFL      -0.333300
     20 C5           5.2140    -4.2970    -4.8560 ca         1 NFL       0.433200
     21 H10          3.9640    -0.7370    -0.4200 ha         1 NFL       0.146000
     22 H12          3.1740    -4.3750    -2.5350 ha         1 NFL       0.165000
     23 H13          0.7530    -3.9780    -2.3030 ha         1 NFL       0.123000
     24 H14         -0.0610    -1.9650    -1.1380 ha         1 NFL       0.129000
     25 HN2          5.7220    -2.4910    -0.9060 hn         1 NFL       0.515800
     26 H3           8.4800    -4.6630    -4.0690 ha         1 NFL       0.160000
     27 H4           6.8790    -5.1460    -5.9060 ha         1 NFL       0.114000
     28 H5           4.5160    -4.5060    -5.6580 h4         1 NFL      -0.003900
@<TRIPOS>BOND
     1     1     2 1
     2     2     3 1
     3     2     4 1
     4     2     5 1
     5     5     6 ar
     6     5    10 ar
     7     6     7 ar
     8     6    21 1
     9     7     8 ar
    10     7    11 1
    11     8     9 ar
    12     8    22 1
    13     9    10 ar
    14     9    23 1
    15    10    24 1
    16    11    12 1
    17    11    25 1
    18    12    13 ar
    19    12    14 ar
    20    13    20 ar
    21    14    15 1
    22    14    18 ar
    23    15    16 1
    24    15    17 1
    25    18    19 ar
    26    18    26 1
    27    19    20 ar
    28    19    27 1
    29    20    28 1
@<TRIPOS>SUBSTRUCTURE
     1 NFL         1 TEMP              0 ****  ****    0 ROOT
