@<TRIPOS>MOLECULE
molecule
   22    22     1     0     0
SMALL
bcc


@<TRIPOS>ATOM
      1 C1           0.0000     0.0000     0.0000 ca         1 NFM       0.744200
      2 N1           1.3300     0.0000     0.0000 nb         1 NFM      -0.812000
      3 O1          -4.7860    -0.6970     1.2340 o          1 NFM      -0.613100
      4 C2           2.0020     0.0000     1.1340 ca         1 NFM       0.735300
      5 N2           1.3940    -0.0020     2.3030 nb         1 NFM      -0.783000
      6 C3           0.0710    -0.0020     2.3840 ca         1 NFM       0.510200
      7 N3          -0.7030    -0.0060    -1.1930 nv         1 NFM      -1.000500
      8 C4          -0.6760    -0.0010     1.2220 ca         1 NFM      -0.449900
      9 N4          -2.6770    -1.3620     1.0470 ns         1 NFM      -0.599900
     10 C5           3.5080     0.0010     1.0920 c3         1 NFM      -0.124400
     11 C6          -2.1820    -0.0010     1.2720 c3         1 NFM       0.173300
     12 C7          -4.0030    -1.6050     1.0480 c          1 NFM       0.651900
     13 H3          -0.4190    -0.0030     3.3500 h4         1 NFM       0.032100
     14 HN3         -0.2170    -0.1330    -2.0590 hn         1 NFM       0.447300
     15 HN3A        -1.6880     0.1720    -1.1940 hn         1 NFM       0.447300
     16 HN4         -2.0310    -2.1090     0.8860 hn         1 NFM       0.319500
     17 H5           3.8450     0.5440     0.2170 hc         1 NFM       0.061367
     18 H5A          3.8940     0.4800     1.9840 hc         1 NFM       0.061367
     19 H5B          3.8690    -1.0190     1.0460 hc         1 NFM       0.061367
     20 H6          -2.5690     0.6560     0.5030 h1         1 NFM       0.056200
     21 H6A         -2.5110     0.3460     2.2440 h1         1 NFM       0.056200
     22 H7          -4.3700    -2.6110     0.8870 h5         1 NFM       0.026200
@<TRIPOS>BOND
     1     2     1 ar
     2     7     1 1
     3     1     8 ar
     4     2     4 ar
     5    12     3 2
     6    10     4 1
     7     4     5 ar
     8     5     6 ar
     9     8     6 ar
    10     6    13 1
    11     7    14 1
    12     7    15 1
    13     8    11 1
    14     9    11 1
    15     9    12 1
    16     9    16 1
    17    10    17 1
    18    10    18 1
    19    10    19 1
    20    11    20 1
    21    11    21 1
    22    12    22 1
@<TRIPOS>SUBSTRUCTURE
     1 NFM         1 TEMP              0 ****  ****    0 ROOT
