@<TRIPOS>MOLECULE
NFN
   50    53     1     0     0
SMALL
bcc


@<TRIPOS>ATOM
      1 O1           0.0000     0.0000     0.0000 os         1 NFN      -0.266900
      2 C4           3.6310     0.0000     0.0000 ca         1 NFN      -0.039000
      3 C3           2.3420     0.0000     0.4270 ca         1 NFN      -0.214000
      4 C10          3.9360    -0.0000    -1.3740 ca         1 NFN      -0.074000
      5 C2           1.2710    -0.0000    -0.4690 ca         1 NFN       0.160100
      6 C9           2.8850    -0.0000    -2.3230 ca         1 NFN       0.032000
      7 C1           1.5030    -0.0050    -1.8450 ca         1 NFN      -0.171600
      8 C5           5.2660     0.0010    -1.8240 ca         1 NFN      -0.088000
      9 C6           5.5250     0.0020    -3.1620 ca         1 NFN      -0.112000
     10 C7           4.4890     0.0020    -4.0920 ca         1 NFN      -0.084000
     11 C8           3.1860     0.0010    -3.6890 ca         1 NFN      -0.088000
     12 C14         -0.8630     1.5410    -5.5880 c          1 NFN       0.641500
     13 N2          -1.4650     2.7680    -5.4620 nj         1 NFN      -0.128800
     14 C16         -0.5440     3.9380    -5.4230 c3         1 NFN      -0.127300
     15 C21         -0.6170     4.6430    -6.7540 c          1 NFN       1.008600
     16 O4           0.3690     5.2080    -7.1990 o          1 NFN      -0.867800
     17 O5          -1.6590     4.6470    -7.3870 o          1 NFN      -0.867800
     18 C15         -0.9270     4.9410    -4.2990 c3         1 NFN       0.135100
     19 C19         -2.0870     5.8450    -4.7220 c3         1 NFN       0.012900
     20 C20          0.2800     5.7610    -3.8410 c3         1 NFN       0.012900
     21 S1          -1.4500     3.7230    -3.0100 ss         1 NFN      -0.490200
     22 C13         -2.0860     2.4360    -4.1580 cy         1 NFN       0.103800
     23 C12         -1.2560     1.1510    -4.1790 cy         1 NFN      -0.121300
     24 N1          -0.1380     1.1550    -3.2310 ns         1 NFN      -0.167900
     25 C11          0.3810    -0.0100    -2.7960 c          1 NFN       0.609700
     26 O2          -0.0790    -1.0650    -3.1890 o          1 NFN      -0.650100
     27 C17          0.0860    -0.0010     1.4260 c3         1 NFN       0.175400
     28 C18         -1.3220    -0.0000     2.0230 c3         1 NFN      -0.005100
     29 H4           4.4350     0.0000     0.7260 ha         1 NFN       0.096000
     30 H3           2.1390     0.0000     1.4910 ha         1 NFN       0.127000
     31 H5           6.0820     0.0010    -1.1120 ha         1 NFN       0.098000
     32 H6           6.5520     0.0030    -3.5070 ha         1 NFN       0.096000
     33 H7           4.7210     0.0040    -5.1500 ha         1 NFN       0.107000
     34 H8           2.3890     0.0010    -4.4220 ha         1 NFN       0.132000
     35 H16          0.4670     3.5880    -5.2550 h1         1 NFN       0.039700
     36 H191        -1.7280     6.5870    -5.4260 hc         1 NFN       0.019700
     37 H192        -2.8590     5.2470    -5.1900 hc         1 NFN       0.019700
     38 H193        -2.4940     6.3420    -3.8500 hc         1 NFN       0.019700
     39 H201         0.0270     6.3020    -2.9370 hc         1 NFN       0.019700
     40 H202         0.5540     6.4650    -4.6180 hc         1 NFN       0.019700
     41 H203         1.1140     5.0980    -3.6440 hc         1 NFN       0.019700
     42 H13         -3.1600     2.3030    -4.1950 h2         1 NFN       0.081700
     43 H12         -1.8670     0.2570    -4.1460 h1         1 NFN       0.077700
     44 HN1          0.2110     2.0230    -2.8750 hn         1 NFN       0.218500
     45 H171         0.6170    -0.8860     1.7550 h1         1 NFN       0.006200
     46 H172         0.6180     0.8830     1.7570 h1         1 NFN       0.006200
     47 H181        -1.2570    -0.0020     3.1040 hc         1 NFN       0.010367
     48 H182        -1.8550    -0.8840     1.6920 hc         1 NFN       0.010367
     49 H183        -1.8530     0.8850     1.6950 hc         1 NFN       0.010367
     50 O3          -0.2310     0.9980    -6.4690 o          1 NFN      -0.564500
@<TRIPOS>BOND
     1     1     5 1   
     2     1    27 1   
     3     2     3 ar  
     4     2     4 ar  
     5     2    29 1   
     6     3     5 ar  
     7     3    30 1   
     8     4     6 ar  
     9     4     8 ar  
    10     5     7 ar  
    11     6     7 ar  
    12     6    11 ar  
    13     7    25 1   
    14     8     9 ar  
    15     8    31 1   
    16     9    10 ar  
    17     9    32 1   
    18    10    11 ar  
    19    10    33 1   
    20    11    34 1   
    21    12    13 1   
    22    12    23 1   
    23    12    50 2   
    24    13    14 1   
    25    13    22 1   
    26    14    15 1   
    27    14    18 1   
    28    14    35 1   
    29    15    16 1   
    30    15    17 1   
    31    18    19 1   
    32    18    20 1   
    33    18    21 1   
    34    19    36 1   
    35    19    37 1   
    36    19    38 1   
    37    20    39 1   
    38    20    40 1   
    39    20    41 1   
    40    21    22 1   
    41    22    23 1   
    42    22    42 1   
    43    23    24 1   
    44    23    43 1   
    45    24    25 1   
    46    24    44 1   
    47    25    26 2   
    48    27    28 1   
    49    27    45 1   
    50    27    46 1   
    51    28    47 1   
    52    28    48 1   
    53    28    49 1   
@<TRIPOS>SUBSTRUCTURE
     1 NFN         1 TEMP              0 ****  ****    0 ROOT
