@<TRIPOS>MOLECULE
molecule
   41    42     1     0     0
SMALL
bcc


@<TRIPOS>ATOM
      1 C1           0.0000     0.0000     0.0000 ce         1 NFP      -0.592100
      2 C2           1.3100     0.0000     0.0000 c2         1 NFP       0.125800
      3 C3           2.0630     0.0000     1.3040 c3         1 NFP       0.109700
      4 N1           1.1140    -0.1220     2.4180 nz         1 NFP      -0.789600
      5 C4           3.0360    -1.1820     1.3310 c3         1 NFP      -0.106400
      6 C5           3.8880    -1.1120     2.6000 c3         1 NFP      -0.037100
      7 C6           4.8450    -2.2760     2.6270 ca         1 NFP      -0.118300
      8 C7           6.0980    -2.1530     2.0560 ca         1 NFP      -0.119000
      9 C8           6.9760    -3.2210     2.0810 ca         1 NFP      -0.113000
     10 C9           6.6020    -4.4100     2.6770 ca         1 NFP      -0.103000
     11 C10          5.3490    -4.5320     3.2480 ca         1 NFP      -0.113000
     12 C11          4.4720    -3.4630     3.2270 ca         1 NFP      -0.119000
     13 C12         -3.1330    -3.9270    -1.7550 ca         1 NFP      -0.052000
     14 C13         -3.7290    -2.8210    -1.1800 ca         1 NFP      -0.142000
     15 C14         -3.0420    -1.6230    -1.1100 ca         1 NFP      -0.025500
     16 C15         -1.7580    -1.5330    -1.6160 ca         1 NFP      -0.290500
     17 S1          -0.8820    -0.0060    -1.5260 sy         1 NFP       1.245200
     18 O1          -1.8630     1.0160    -1.4270 o          1 NFP      -0.577800
     19 O2           0.0980    -0.0460    -2.5550 o          1 NFP      -0.577800
     20 C16         -1.1610    -2.6390    -2.1910 ca         1 NFP      -0.025500
     21 C17         -1.8490    -3.8370    -2.2610 ca         1 NFP      -0.142000
     22 H1          -0.1470     0.8740    -0.6230 h4         1 NFP       0.148000
     23 H3           1.8520    -0.0040    -0.9380 ha         1 NFP       0.163000
     24 H5           2.6180     0.9260     1.4020 hx         1 NFP       0.133700
     25 H6           0.4180     0.5940     2.3430 hn         1 NFP       0.463467
     26 H7           2.4760    -2.1100     1.3230 hc         1 NFP       0.092700
     27 H8           3.6790    -1.1400     0.4610 hc         1 NFP       0.092700
     28 H9           4.4470    -0.1840     2.6080 hc         1 NFP       0.045200
     29 H10          3.2440    -1.1530     3.4700 hc         1 NFP       0.045200
     30 H11          6.3910    -1.2200     1.5890 ha         1 NFP       0.125500
     31 H12          7.9570    -3.1250     1.6330 ha         1 NFP       0.146500
     32 H13          7.2890    -5.2470     2.6950 ha         1 NFP       0.149000
     33 H14          5.0560    -5.4640     3.7170 ha         1 NFP       0.146500
     34 H15          3.4900    -3.5590     3.6750 ha         1 NFP       0.125500
     35 H18         -3.5090    -0.7560    -0.6590 ha         1 NFP       0.151500
     36 H19         -0.1550    -2.5680    -2.5870 ha         1 NFP       0.151500
     37 H20         -1.3820    -4.7040    -2.7120 ha         1 NFP       0.152000
     38 H21          1.6020    -0.0220     3.2860 hn         1 NFP       0.463467
     39 H16         -3.6720    -4.8650    -1.8100 ha         1 NFP       0.151000
     40 H131         0.6790    -1.0230     2.3890 hn         1 NFP       0.463467
     41 H17         -4.7350    -2.8920    -0.7840 ha         1 NFP       0.152000
@<TRIPOS>BOND
     1     1     2 2
     2     1    22 1
     3     1    17 1
     4     2     3 1
     5     2    23 1
     6     3     4 1
     7     3     5 1
     8     3    24 1
     9     4    25 1
    10     5     6 1
    11     5    26 1
    12     5    27 1
    13     6     7 1
    14     6    28 1
    15     6    29 1
    16     7     8 ar
    17     7    12 ar
    18     8     9 ar
    19     8    30 1
    20     9    10 ar
    21     9    31 1
    22    10    11 ar
    23    10    32 1
    24    11    12 ar
    25    11    33 1
    26    12    34 1
    27    13    14 ar
    28    13    21 ar
    29    13    39 1
    30    14    15 ar
    31    14    41 1
    32    15    16 ar
    33    15    35 1
    34    16    17 1
    35    16    20 ar
    36    17    18 2
    37    17    19 2
    38    20    21 ar
    39    20    36 1
    40    21    37 1
    41     4    38 1
    42    40     4 1
@<TRIPOS>SUBSTRUCTURE
     1 NFP         1 TEMP              0 ****  ****    0 ROOT
