@<TRIPOS>MOLECULE
molecule
   17    16     1     0     0
SMALL
bcc


@<TRIPOS>ATOM
      1 C            0.0000     0.0000     0.0000 c          1 NFQ       0.890600
      2 N            1.9950     1.1970    -0.6900 nu         1 NFQ      -0.803200
      3 O1          -0.6710    -1.0070     0.5810 o          1 NFQ      -0.881800
      4 O2          -0.6050     0.9090    -0.5180 o          1 NFQ      -0.881800
      5 CA           1.5060     0.0000     0.0000 c3         1 NFQ       0.157500
      6 CB           2.0170     0.0000     1.4420 c3         1 NFQ      -0.177400
      7 CF           2.1250     1.1960    -2.0540 c2         1 NFQ       0.681100
      8 NF           1.8180     0.1390    -2.7320 n2         1 NFQ      -0.942100
      9 CG           3.5190    -0.1240     1.4440 c          1 NFQ       0.884600
     10 OD1          4.1190    -0.2030     0.3980 o          1 NFQ      -0.881800
     11 OD2          4.1900    -0.1450     2.6060 o          1 NFQ      -0.881800
     12 HN           2.1900     2.0300    -0.1700 hn         1 NFQ       0.415800
     13 HA           1.8670    -0.8840    -0.5110 h1         1 NFQ       0.087700
     14 HB           1.5860    -0.8370     1.9780 hc         1 NFQ       0.040200
     15 HBA          1.7310     0.9260     1.9270 hc         1 NFQ       0.040200
     16 HF           2.4860     2.0810    -2.5650 h5         1 NFQ      -0.090200
     17 HNF          1.9130     0.1370    -3.7280 hn         1 NFQ       0.341400
@<TRIPOS>BOND
     1     5     1 1
     2     4     1 1
     3     1     3 1
     4     7     2 1
     5     5     2 1
     6     2    12 1
     7     6     5 1
     8     5    13 1
     9     9     6 1
    10     6    14 1
    11     6    15 1
    12     7     8 2
    13     7    16 1
    14     8    17 1
    15    10     9 1
    16    11     9 1
@<TRIPOS>SUBSTRUCTURE
     1 NFQ         1 TEMP              0 ****  ****    0 ROOT
