@<TRIPOS>MOLECULE
molecule
   64    65     1     0     0
SMALL
bcc


@<TRIPOS>ATOM
      1 C46          0.0000     0.0000     0.0000 cp         1 NFT       0.073000
      2 C08         -0.1660    -0.6040    -2.3800 ca         1 NFT      -0.095500
      3 C09         -0.7240    -0.0000    -1.2530 cp         1 NFT      -0.081000
      4 C10         -1.9790     0.6040    -1.3340 ca         1 NFT      -0.095500
      5 C11         -2.6770     0.6040    -2.5420 ca         1 NFT      -0.108000
      6 C07         -0.8640    -0.6040    -3.5880 ca         1 NFT      -0.108000
      7 C06         -2.1080    -0.0000    -3.6500 ca         1 NFT      -0.116300
      8 C15         -2.8650    -0.0000    -4.9600 c3         1 NFT       0.135800
      9 C16         -2.1040     0.7150    -6.0680 c3         1 NFT       0.673900
     10 F35         -1.8810     2.0070    -5.7350 f          1 NFT      -0.219633
     11 F36         -0.8980     0.1440    -6.2790 f          1 NFT      -0.219633
     12 F37         -2.7760     0.7070    -7.2380 f          1 NFT      -0.219633
     13 N26         -3.7360    -4.3950    -4.1240 ns         1 NFT      -0.603900
     14 C41         -3.8240    -5.8050    -4.4280 c3         1 NFT       0.093000
     15 N24         -3.2260    -1.3580    -5.3670 n7         1 NFT      -0.775200
     16 C17         -4.0360    -2.0100    -4.3720 c3         1 NFT       0.112500
     17 C18         -5.3400    -1.2500    -4.0940 c3         1 NFT      -0.072400
     18 C19         -6.2400    -1.8820    -3.0130 c3         1 NFT      -0.076700
     19 C20         -5.4640    -1.9950    -1.6980 c3         1 NFT      -0.096600
     20 C21         -6.7650    -3.2580    -3.4230 c3         1 NFT      -0.096600
     21 C22         -4.3440    -3.4110    -4.8910 c          1 NFT       0.676100
     22 O23         -5.0160    -3.6190    -5.8980 o          1 NFT      -0.528100
     23 C47          1.3940     0.0000     0.0000 ca         1 NFT      -0.131000
     24 C48          2.0920     0.0000     1.2080 ca         1 NFT      -0.019000
     25 C50          1.3950     0.0000     2.4160 ca         1 NFT      -0.350500
     26 C51          0.0000    -0.0010     2.4160 ca         1 NFT      -0.019000
     27 C52         -0.6980    -0.0010     1.2090 ca         1 NFT      -0.131000
     28 S60          2.2680     0.0020     3.9280 sy         1 NFT       1.130200
     29 N63          2.4320    -1.6760     4.2110 nz         1 NFT      -0.781500
     30 O61          3.5880     0.5710     3.6960 o          1 NFT      -0.471800
     31 O62          1.4080     0.5660     4.9580 o          1 NFT      -0.471800
     32 C44         -2.7000    -6.2630    -5.3410 c3         1 NFT       0.043800
     33 N45         -2.7970    -7.6610    -5.6630 nz         1 NFT      -0.792600
     34 H08          0.8080    -1.0720    -2.3170 ha         1 NFT       0.144000
     35 H10         -2.4120     1.0720    -0.4590 ha         1 NFT       0.144000
     36 H11         -3.6520     1.0710    -2.6120 ha         1 NFT       0.157000
     37 H07         -0.4370    -1.0710    -4.4670 ha         1 NFT       0.157000
     38 H15         -3.7870     0.5440    -4.7990 h1         1 NFT       0.112700
     39 HN26        -3.2090    -4.1130    -3.3200 hn         1 NFT       0.329500
     40 H411        -3.7770    -6.3680    -3.5030 h1         1 NFT       0.074700
     41 H412        -4.7730    -6.0020    -4.9120 h1         1 NFT       0.074700
     42 HN24        -2.3940    -1.8920    -5.5220 hn         1 NFT       0.362800
     43 H17         -3.4700    -2.0890    -3.4520 h1         1 NFT       0.024700
     44 H181        -5.0880    -0.2430    -3.7830 hc         1 NFT       0.070200
     45 H182        -5.9040    -1.1920    -5.0170 hc         1 NFT       0.070200
     46 H19         -7.0890    -1.2280    -2.8520 hc         1 NFT       0.076700
     47 H201        -6.1190    -2.3750    -0.9240 hc         1 NFT       0.037200
     48 H202        -4.6290    -2.6740    -1.8290 hc         1 NFT       0.037200
     49 H203        -5.0940    -1.0190    -1.4120 hc         1 NFT       0.037200
     50 H211        -6.8310    -3.3130    -4.5030 hc         1 NFT       0.037200
     51 H212        -7.7470    -3.4130    -2.9930 hc         1 NFT       0.037200
     52 H213        -6.0890    -4.0250    -3.0630 hc         1 NFT       0.037200
     53 H47          1.9350    -0.0000    -0.9380 ha         1 NFT       0.167500
     54 H48          3.1750     0.0000     1.2070 ha         1 NFT       0.162000
     55 H51         -0.5410    -0.0010     3.3550 ha         1 NFT       0.162000
     56 H52         -1.7810    -0.0010     1.2090 ha         1 NFT       0.167500
     57 H631         2.9390    -2.0940     3.4560 hn         1 NFT       0.483800
     58 H632         1.5250    -2.0930     4.2760 hn         1 NFT       0.483800
     59 H441        -2.7360    -5.6880    -6.2580 hx         1 NFT       0.114200
     60 H442        -1.7520    -6.0800    -4.8490 hx         1 NFT       0.114200
     61 H451        -3.6740    -7.8400    -6.1090 hn         1 NFT       0.461467
     62 H452        -2.0510    -7.9140    -6.2800 hn         1 NFT       0.461467
     63 H633         2.9210    -1.8220     5.0720 hn         1 NFT       0.483800
     64 H453        -2.7340    -8.2020    -4.8230 hn         1 NFT       0.461467
@<TRIPOS>BOND
     1     1     3 1
     2     1    23 ar
     3     1    27 ar
     4     2     6 ar
     5     2     3 ar
     6     2    34 1
     7     3     4 ar
     8     4     5 ar
     9     4    35 1
    10     5     7 ar
    11     5    36 1
    12     6     7 ar
    13     6    37 1
    14     7     8 1
    15     8     9 1
    16     8    15 1
    17     8    38 1
    18     9    10 1
    19     9    12 1
    20     9    11 1
    21    13    14 1
    22    13    21 1
    23    13    39 1
    24    14    32 1
    25    14    40 1
    26    14    41 1
    27    15    16 1
    28    15    42 1
    29    16    21 1
    30    16    17 1
    31    16    43 1
    32    17    18 1
    33    17    44 1
    34    17    45 1
    35    18    19 1
    36    18    20 1
    37    18    46 1
    38    19    47 1
    39    19    48 1
    40    19    49 1
    41    20    50 1
    42    20    51 1
    43    20    52 1
    44    21    22 2
    45    23    24 ar
    46    23    53 1
    47    24    25 ar
    48    24    54 1
    49    25    26 ar
    50    25    28 1
    51    26    27 ar
    52    26    55 1
    53    27    56 1
    54    28    31 2
    55    28    30 2
    56    28    29 1
    57    29    57 1
    58    29    58 1
    59    32    33 1
    60    32    59 1
    61    32    60 1
    62    33    61 1
    63    33    62 1
    64    63    29 1
    65    64    33 1
@<TRIPOS>SUBSTRUCTURE
     1 NFT         1 TEMP              0 ****  ****    0 ROOT
