@<TRIPOS>MOLECULE
NFW
   63    63     1     0     0
SMALL
bcc


@<TRIPOS>ATOM
      1 C1          3.3860   90.0730  -44.1310 c3        1 NFW     -0.068000
      2 C2          2.5320   91.0490  -43.3320 c3        1 NFW     -0.157000
      3 C3          8.7380   95.2560  -48.4520 c3        1 NFW     -0.270000
      4 C4          4.5960   90.6520  -44.6290 c1        1 NFW     -0.147000
      5 C5          3.0320   91.5550  -42.0760 c1        1 NFW     -0.023000
      6 C6         11.9710   94.0490  -40.3880 c1        1 NFW     -0.136000
      7 C7         13.3370   93.9290  -40.6660 c2        1 NFW     -0.273000
      8 C8          8.9340   94.3030  -47.3020 c2        1 NFW     -0.201000
      9 C9          8.2850   94.3390  -49.5780 c1        1 NFW      0.007000
     10 C10         5.6230   91.1120  -45.0330 c1        1 NFW     -0.078000
     11 C11        11.4900   93.4230  -42.7870 c2        1 NFW     -0.025000
     12 C12         4.2850   91.5050  -41.5790 c1        1 NFW     -0.201000
     13 C13        10.9810   93.7990  -41.4380 c3        1 NFW     -0.171000
     14 C14        13.7740   93.5400  -41.9190 c2        1 NFW      0.167000
     15 C15        12.8320   93.3050  -42.9880 c2        1 NFW     -0.090000
     16 C16         8.6300   93.0580  -47.7300 c2        1 NFW     -0.091000
     17 C19         6.8660   91.6530  -45.4990 c2        1 NFW      0.243000
     18 C21       -44.8640 -509.2020  265.2980 c2        1 NFW      0.327000
     19 C22        14.6420   92.8000  -44.3930 c2        1 NFW     -0.056000
     20 C23        15.5150   92.9880  -43.3920 c2        1 NFW     -0.164000
     21 C24         5.3680   91.5880  -41.0340 c1        1 NFW     -0.101000
     22 C25         9.9530   92.7730  -40.8760 c3        1 NFW     -0.015000
     23 C26         8.6470   91.7140  -47.1050 c3        1 NFW     -0.049000
     24 C27         7.9130   93.7530  -41.7760 c3        1 NFW     -0.141000
     25 C29       -44.6930 -511.6110  264.5950 c3        1 NFW     -0.184000
     26 N30         7.3800   91.2390  -46.6200 n2        1 NFW     -0.258000
     27 N31         8.7220   92.5760  -41.5880 n3        1 NFW     -0.328000
     28 O32         9.9060   94.3450  -44.3060 o         1 NFW     -0.563500
     29 O33       -44.0140 -508.2980  265.5450 o         1 NFW     -0.590000
     30 O34         7.3240   92.6060  -44.6110 oh        1 NFW     -0.300000
     31 O35        10.1390   92.1410  -44.3040 o         1 NFW     -0.563500
     32 O36       -45.9760 -508.9850  264.7350 o         1 NFW     -0.590000
     33 O37         8.2360   93.1060  -49.1260 os        1 NFW     -0.096000
     34 O38        13.2820   92.9800  -44.2800 os        1 NFW     -0.112000
     35 O39        15.1290   93.3920  -42.1130 os        1 NFW     -0.144000
     36 H1          2.7800   89.6840  -44.9970 hc        1 NFW      0.096000
     37 H2          2.3230   91.9710  -43.9530 hc        1 NFW      0.131500
     38 H4          3.6450   89.1910  -43.4810 hc        1 NFW      0.096000
     39 H5          1.5340   90.5640  -43.1280 hc        1 NFW      0.131500
     40 H3          7.9540   96.0220  -48.2310 hc        1 NFW      0.135500
     41 H8          9.2760   94.6020  -46.3030 ha        1 NFW      0.230000
     42 H9          9.6830   95.7830  -48.7270 hc        1 NFW      0.135500
     43 H6         10.4290   94.7870  -41.5820 hc        1 NFW      0.178000
     44 H7         14.0700   94.1300  -39.8720 ha        1 NFW      0.143000
     45 H241        6.3380   91.6570  -40.5980 ha        1 NFW      0.250000
     46 H242        8.8740   92.1170  -42.4730 hn        1 NFW      0.200000
     47 H251       10.4710   91.7750  -40.8130 h1        1 NFW      0.093000
     48 H252        9.7060   93.1190  -39.8320 h1        1 NFW      0.093000
     49 H261        8.2550   92.8530  -44.8110 ho        1 NFW      0.285000
     50 H262        8.9580   90.9630  -47.8900 h1        1 NFW      0.134500
     51 H30         9.4410   91.7310  -46.2900 h1        1 NFW      0.134500
     52 H281      -43.4850 -510.6750  266.1270 hc        1 NFW      0.056000
     53 H282      -45.2240 -510.9150  266.5670 hc        1 NFW      0.056000
     54 H23       -44.5950 -512.6680  264.9470 hc        1 NFW      0.050667
     55 H221       14.8910   92.4910  -45.4180 h4        1 NFW      0.179000
     56 H222       16.6020   92.8620  -43.4220 h4        1 NFW      0.175000
     57 H291      -43.9170 -511.4310  263.8120 hc        1 NFW      0.050667
     58 H292      -45.6990 -511.4780  264.1260 hc        1 NFW      0.050667
     59 H271        8.3820   94.5110  -42.4650 h1        1 NFW      0.076000
     60 H272        7.7140   94.2380  -40.7850 h1        1 NFW      0.076000
     61 H273        6.9390   93.4290  -42.2340 h1        1 NFW      0.076000
     62 C28       -44.5310 -510.6410  265.7310 c3        1 NFW     -0.226000
     63 C20        10.4680   93.2900  -43.8880 c2        1 NFW      0.357000
@<TRIPOS>BOND
     1    1    2 1
     2    1    4 1
     3    1   36 1
     4    1   38 1
     5    2    5 1
     6    2   37 1
     7    2   39 1
     8    3    8 1
     9    3    9 1
    10    3   40 1
    11    3   42 1
    12    4   10 1
    13    5   12 1
    14    6    7 1
    15    6   13 1
    16    7   14 1
    17    7   44 1
    18    8   16 1
    19    8   41 1
    20    9   33 1
    21   10   17 1
    22   11   13 1
    23   11   15 1
    24   11   63 1
    25   12   21 1
    26   13   22 1
    27   13   43 1
    28   14   15 1
    29   14   35 1
    30   15   34 1
    31   16   23 1
    32   16   33 1
    33   17   26 1
    34   17   30 1
    35   18   29 1
    36   18   32 1
    37   18   62 1
    38   19   20 1
    39   19   34 1
    40   19   55 1
    41   20   35 1
    42   20   56 1
    43   21   45 1
    44   22   27 1
    45   22   47 1
    46   22   48 1
    47   23   26 1
    48   23   50 1
    49   23   51 1
    50   24   27 1
    51   24   59 1
    52   24   60 1
    53   24   61 1
    54   25   54 1
    55   25   57 1
    56   25   58 1
    57   25   62 1
    58   27   46 1
    59   28   63 1
    60   30   49 1
    61   31   63 1
    62   52   62 1
    63   53   62 1
@<TRIPOS>SUBSTRUCTURE
     1 NFW         1 TEMP              0 ****  ****    0 ROOT
