@<TRIPOS>MOLECULE
NFX
   42    45     1     0     0
SMALL
bcc


@<TRIPOS>ATOM
      1 F            0.0000     0.0000     0.0000 f          1 NFX      -0.206900
      2 O02          3.0360    -0.0600    -3.1740 o          1 NFX      -0.494100
      3 O03          7.0600    -0.0410    -3.8210 o          1 NFX      -0.853300
      4 O            5.0660    -0.0680    -4.7990 o          1 NFX      -0.853300
      5 N01          1.8170     0.0310     3.0720 nh         1 NFX      -0.371000
      6 N            5.5170     0.0000     0.0000 na         1 NFX       0.052200
      7 C01         -0.1320    -0.7300     4.3040 c3         1 NFX      -0.145500
      8 C02          0.1000     0.7810     4.5380 c3         1 NFX      -0.011400
      9 C03          0.9870    -1.1630     3.3380 c3         1 NFX       0.145800
     10 C04          0.9290     1.2000     3.2990 c3         1 NFX       0.170800
     11 N05         -1.4490    -0.9550     3.6930 nz         1 NFX       0.052400
     12 C06          6.4310     0.0220     1.1450 cx         1 NFX      -0.049500
     13 C08          6.8900    -1.3240     1.7090 cx         1 NFX      -0.070900
     14 C09          7.8660    -0.4550     0.9130 cx         1 NFX      -0.070900
     15 C11          2.3030     0.0200     1.7660 ca         1 NFX       0.064600
     16 C12          4.1590     0.0000     0.2400 ca         1 NFX       0.040600
     17 C13          3.6710     0.0200     1.5420 ca         1 NFX      -0.082600
     18 C14          3.2490    -0.0210    -0.8340 ca         1 NFX      -0.200600
     19 C15          1.4080    -0.0000     0.6930 ca         1 NFX      -0.088100
     20 C16          6.0350    -0.0130    -1.2350 cc         1 NFX      -0.161000
     21 C17          1.8730    -0.0200    -0.5910 ca         1 NFX      -0.019000
     22 C18          5.2430    -0.0330    -2.3640 cd         1 NFX      -0.179400
     23 C19          3.7790    -0.0410    -2.2070 c          1 NFX       0.595900
     24 C20          5.8500    -0.0470    -3.7020 c          1 NFX       0.968800
     25 H01         -0.0480    -1.2710     5.2390 hx         1 NFX       0.093700
     26 H02          0.3450     0.2430     5.4460 hc         1 NFX       0.050700
     27 H03          1.5910    -1.9360     3.7970 h1         1 NFX       0.046200
     28 H03A         0.5540    -1.5240     2.4130 h1         1 NFX       0.046200
     29 H04          0.2820     1.3590     2.4450 h1         1 NFX       0.048200
     30 H04A         1.5140     2.0860     3.5150 h1         1 NFX       0.048200
     31 H06          6.3290     0.8110     1.8810 h1         1 NFX       0.100700
     32 H08          6.5150    -2.1990     1.1920 hc         1 NFX       0.058700
     33 H08A         7.0540    -1.3520     2.7790 hc         1 NFX       0.058700
     34 H09          8.0880    -0.8000    -0.0900 hc         1 NFX       0.058700
     35 H09A         8.6270     0.0480     1.4970 hc         1 NFX       0.058700
     36 H16          7.1120    -0.0070    -1.3520 h4         1 NFX       0.175000
     37 H17          1.1760     0.0210    -1.4200 ha         1 NFX       0.169000
     38 H02A        -0.8520     1.2940     4.5980 hc         1 NFX       0.050700
     39 H05         -1.5810    -0.3100     2.9400 hn         1 NFX       0.227467
     40 H05A        -2.1630    -0.8170     4.3810 hn         1 NFX       0.227467
     41 H053        -1.4990    -1.8920     3.3440 hn         1 NFX       0.227467
     42 Cl           4.7730     0.0360     2.8830 cl         1 NFX       0.020600
@<TRIPOS>BOND
     1     1    19 1   
     2     2    23 2   
     3     3    24 1   
     4     4    24 1   
     5     5     9 1   
     6     5    10 1   
     7     5    15 1   
     8     6    12 1   
     9     6    16 1   
    10     6    20 1   
    11     7     8 1   
    12     7     9 1   
    13     7    11 1   
    14     7    25 1   
    15     8    10 1   
    16     8    26 1   
    17     8    38 1   
    18     9    27 1   
    19     9    28 1   
    20    10    29 1   
    21    10    30 1   
    22    11    39 1   
    23    11    40 1   
    24    11    41 1   
    25    12    13 1   
    26    12    14 1   
    27    12    31 1   
    28    13    14 1   
    29    13    32 1   
    30    13    33 1   
    31    14    34 1   
    32    14    35 1   
    33    15    17 ar  
    34    15    19 ar  
    35    16    17 ar  
    36    16    18 ar  
    37    17    42 1   
    38    18    21 ar  
    39    18    23 1   
    40    19    21 ar  
    41    20    22 2   
    42    20    36 1   
    43    21    37 1   
    44    22    23 1   
    45    22    24 1   
@<TRIPOS>SUBSTRUCTURE
     1 NFX         1 TEMP              0 ****  ****    0 ROOT
