@<TRIPOS>MOLECULE
NFZ
   20    20     1     0     0
SMALL
bcc


@<TRIPOS>ATOM
      1 O4          0.0130    0.1690    0.0450 o         1 NFZ     -0.623100
      2 C6          1.2600    0.1030    0.1450 c         1 NFZ      0.799100
      3 N4          1.9050   -0.0150    1.3510 n         1 NFZ     -0.649000
      4 N3          1.9820    0.1590   -1.0980 n         1 NFZ     -0.330900
      5 N2          3.2920    0.1010   -1.1650 n2        1 NFZ     -0.396300
      6 C5          3.9250    0.1550   -2.3140 ce        1 NFZ      0.221200
      7 C3          5.3660    0.0920   -2.3960 cc        1 NFZ      0.297400
      8 C4          6.1980    0.1340   -3.5130 cd        1 NFZ     -0.276300
      9 C2          7.5480    0.0350   -3.0350 cd        1 NFZ     -0.128300
     10 O3          6.1180   -0.0280   -1.2270 os        1 NFZ     -0.295800
     11 C1          7.4590   -0.0600   -1.6510 cc        1 NFZ      0.117200
     12 N1          8.4840   -0.1830   -0.6210 no        1 NFZ      0.247500
     13 O1          8.1600   -0.2510    0.5310 o         1 NFZ     -0.188000
     14 O2          9.6320   -0.2120   -0.9810 o         1 NFZ     -0.188000
     15 HN41        2.8890   -0.0680    1.4300 hn        1 NFZ      0.338500
     16 HN42        1.3410   -0.0470    2.1630 hn        1 NFZ      0.338500
     17 HN3         1.3950    0.2450   -1.9110 hn        1 NFZ      0.329500
     18 H5          3.4390    0.2500   -3.3090 h4        1 NFZ      0.017800
     19 H4          5.8950    0.2240   -4.5530 ha        1 NFZ      0.177000
     20 H2          8.4590    0.0360   -3.6320 ha        1 NFZ      0.190000
@<TRIPOS>BOND
     1    1    2 2   
     2    2    3 1   
     3    2    4 1   
     4    3   15 1   
     5    3   16 1   
     6    4    5 1   
     7    4   17 1   
     8    5    6 2   
     9    6    7 1   
    10    6   18 1   
    11    7    8 2   
    12    7   10 1   
    13    8    9 1   
    14    8   19 1   
    15    9   11 2   
    16    9   20 1   
    17   10   11 1   
    18   11   12 1   
    19   12   13 1   
    20   12   14 1   
@<TRIPOS>SUBSTRUCTURE
     1 NFZ         1 TEMP              0 ****  ****    0 ROOT
