@<TRIPOS>MOLECULE
NG2
   69    73     1     0     0
SMALL
bcc


@<TRIPOS>ATOM
      1 C01         0.2110   -0.2110    0.0460 c3        1 NG2     -0.056800
      2 C02         1.6730    0.0000   -0.0360 ca        1 NG2     -0.049300
      3 C03         2.3830    0.5480    1.0380 ca        1 NG2     -0.126000
      4 C04         3.7630    0.7290    0.9710 ca        1 NG2     -0.113000
      5 C05         4.4610    0.3620   -0.1830 ca        1 NG2     -0.139600
      6 C06         3.7790   -0.1810   -1.2750 ca        1 NG2     -0.105000
      7 C07         2.3940   -0.3600   -1.1910 ca        1 NG2      0.087100
      8 O08         1.6800   -1.0120   -2.1950 os        1 NG2     -0.238200
      9 C09         1.8900   -0.5830   -3.4980 ca        1 NG2      0.191100
     10 C10         2.4100    0.6570   -3.8550 ca        1 NG2     -0.337300
     11 C11         2.5100    0.9890   -5.2310 ca        1 NG2      0.442200
     12 N12         2.1410    0.2100   -6.2510 nb        1 NG2     -0.684000
     13 C13         1.6300   -1.0080   -5.8860 ca        1 NG2      0.438800
     14 C14         1.4800   -1.4680   -4.5100 ca        1 NG2     -0.217100
     15 C15         0.9110   -2.7880   -4.5720 cc        1 NG2     -0.155200
     16 C16         0.7360   -3.0940   -5.9190 cd        1 NG2     -0.115100
     17 N17         1.1640   -2.0310   -6.7210 na        1 NG2     -0.284100
     18 C18         5.9360    0.5660   -0.3060 c         1 NG2      0.684700
     19 N19         6.6870    0.1740    0.7960 n         1 NG2     -0.468100
     20 C20         8.0820    0.2320    0.9380 ca        1 NG2      0.070600
     21 C21         8.9350    0.8510   -0.0020 ca        1 NG2     -0.129000
     22 C22        10.3060    0.8730    0.2140 ca        1 NG2     -0.109000
     23 C23        10.8850    0.2980    1.3520 ca        1 NG2     -0.049300
     24 C24        10.0420   -0.3080    2.2900 ca        1 NG2     -0.118300
     25 C25        10.5910   -0.9250    3.5760 c3        1 NG2      0.687200
     26 F26        11.1210   -0.0080    4.4560 f         1 NG2     -0.237967
     27 F27         9.6620   -1.5960    4.3370 f         1 NG2     -0.237967
     28 F28        11.5940   -1.8470    3.4110 f         1 NG2     -0.237967
     29 C29         8.6620   -0.3450    2.0910 ca        1 NG2     -0.150000
     30 C30        12.3780    0.3700    1.5250 c3        1 NG2      0.210100
     31 N31        13.0640   -0.7500    0.8940 n3        1 NG2     -0.729600
     32 C32        14.2950   -1.1090    1.5830 c3        1 NG2      0.170300
     33 C33        15.0440   -2.2750    0.9090 c3        1 NG2      0.167800
     34 N34        15.2420   -2.0820   -0.5200 n3        1 NG2     -0.730600
     35 C35        14.0000   -1.7360   -1.1990 c3        1 NG2      0.167800
     36 C36        13.2610   -0.5610   -0.5340 c3        1 NG2      0.170300
     37 C37        15.9000   -3.2140   -1.1610 c3        1 NG2      0.169800
     38 C38        17.2790   -3.5330   -0.6060 c3        1 NG2     -0.095100
     39 O39         6.4370    1.0490   -1.3360 o         1 NG2     -0.578100
     40 H1         -0.0010   -1.2660    0.3590 hc        1 NG2      0.056033
     41 H2         -0.2540    0.4810    0.7900 hc        1 NG2      0.056033
     42 H3         -0.2660   -0.0460   -0.9520 hc        1 NG2      0.056033
     43 H4          1.8380    0.8440    1.9480 ha        1 NG2      0.144000
     44 H5          4.2910    1.1800    1.8250 ha        1 NG2      0.141000
     45 H6          4.3230   -0.4510   -2.1950 ha        1 NG2      0.171000
     46 H7          2.7440    1.3770   -3.0970 ha        1 NG2      0.158000
     47 H8          2.9260    1.9730   -5.5190 h4        1 NG2      0.027100
     48 H9          0.6710   -3.4150   -3.7180 ha        1 NG2      0.166000
     49 H10         0.3330   -3.9990   -6.3780 h4        1 NG2      0.170000
     50 H11         1.1450   -1.9970   -7.7060 hn        1 NG2      0.311700
     51 H12         6.1950   -0.2620    1.5460 hn        1 NG2      0.323500
     52 H13         8.5250    1.3170   -0.9150 ha        1 NG2      0.180000
     53 H14        10.9570    1.3610   -0.5300 ha        1 NG2      0.144000
     54 H15         8.0270   -0.8350    2.8490 ha        1 NG2      0.149000
     55 H16        12.6140    0.3660    2.6290 h1        1 NG2      0.048700
     56 H17        12.7320    1.3630    1.1130 h1        1 NG2      0.048700
     57 H19        14.9970   -0.2290    1.6670 h1        1 NG2      0.038200
     58 H20        14.0160   -1.4390    2.6240 h1        1 NG2      0.038200
     59 H21        16.0610   -2.3430    1.3900 h1        1 NG2      0.038700
     60 H22        14.4900   -3.2340    1.1290 h1        1 NG2      0.038700
     61 H24        14.2570   -1.4270   -2.2510 h1        1 NG2      0.038700
     62 H25        13.2960   -2.6180   -1.2590 h1        1 NG2      0.038700
     63 H26        12.2440   -0.4780   -1.0120 h1        1 NG2      0.038200
     64 H27        13.8260    0.3930   -0.7560 h1        1 NG2      0.038200
     65 H28        16.0080   -2.9530   -2.2530 h1        1 NG2      0.029700
     66 H29        15.2670   -4.1490   -1.1000 h1        1 NG2      0.029700
     67 H30        17.9200   -2.6200   -0.5640 hc        1 NG2      0.039367
     68 H31        17.2100   -3.9670    0.4190 hc        1 NG2      0.039367
     69 H32        17.7680   -4.2820   -1.2750 hc        1 NG2      0.039367
@<TRIPOS>BOND
     1    1    2 1
     2    1   40 1
     3    1   41 1
     4    1   42 1
     5    2    3 ar
     6    2    7 ar
     7    3    4 ar
     8    3   43 1
     9    4    5 ar
    10    4   44 1
    11    5    6 ar
    12    5   18 1
    13    6    7 ar
    14    6   45 1
    15    7    8 1
    16    8    9 1
    17    9   10 ar
    18    9   14 ar
    19   10   11 ar
    20   10   46 1
    21   11   12 ar
    22   11   47 1
    23   12   13 ar
    24   13   14 ar
    25   13   17 1
    26   14   15 1
    27   15   16 2
    28   15   48 1
    29   16   17 1
    30   16   49 1
    31   17   50 1
    32   18   19 1
    33   18   39 2
    34   19   20 1
    35   19   51 1
    36   20   21 ar
    37   20   29 ar
    38   21   22 ar
    39   21   52 1
    40   22   23 ar
    41   22   53 1
    42   23   24 ar
    43   23   30 1
    44   24   25 1
    45   24   29 ar
    46   25   26 1
    47   25   27 1
    48   25   28 1
    49   29   54 1
    50   30   31 1
    51   30   55 1
    52   30   56 1
    53   31   32 1
    54   31   36 1
    55   32   33 1
    56   32   57 1
    57   32   58 1
    58   33   34 1
    59   33   59 1
    60   33   60 1
    61   34   35 1
    62   34   37 1
    63   35   36 1
    64   35   61 1
    65   35   62 1
    66   36   63 1
    67   36   64 1
    68   37   38 1
    69   37   65 1
    70   37   66 1
    71   38   67 1
    72   38   68 1
    73   38   69 1
@<TRIPOS>SUBSTRUCTURE
     1 NG2         1 TEMP              0 ****  ****    0 ROOT
