@<TRIPOS>MOLECULE
molecule
   74    79     1     0     0
SMALL
bcc


@<TRIPOS>ATOM
      1 C            0.0000     0.0000     0.0000 c3         1 NG7       0.674200
      2 F1           1.3990     0.0000     0.0000 f          1 NG7      -0.220633
      3 N           -4.1510    -1.0150     3.7940 n3         1 NG7      -0.721600
      4 S           -1.2060    -8.2880    -9.9430 ss         1 NG7      -0.050500
      5 C01          2.0950    -9.9620    -8.6450 ca         1 NG7      -0.048000
      6 F3          -0.4660     0.0000     1.3190 f          1 NG7      -0.220633
      7 N01          0.5150    -7.9020    -7.7460 nb         1 NG7      -0.643000
      8 O01         -2.8800    -8.5030   -11.8880 o          1 NG7      -0.576100
      9 C02          0.9340    -9.5880    -9.3610 ca         1 NG7       0.027100
     10 F2          -0.4670     1.1420    -0.6600 f          1 NG7      -0.220633
     11 N02          0.4350   -10.1110   -10.4960 nc         1 NG7      -0.643100
     12 C03          0.1630    -8.5320    -8.8600 ca         1 NG7       0.405600
     13 N03         -1.2840   -10.0270   -12.1230 ns         1 NG7      -0.442400
     14 C04          1.5980    -8.2420    -7.0650 cp         1 NG7       0.483800
     15 C05          2.4160    -9.2850    -7.5050 ca         1 NG7      -0.240300
     16 N05         -2.8790    -0.6980     1.2680 n3         1 NG7      -0.714600
     17 C06         -0.6490    -9.6010   -10.9690 cd         1 NG7       0.458800
     18 C07         -2.4180    -9.4210   -12.5310 c          1 NG7       0.695100
     19 C08         -3.1100    -9.8840   -13.7870 cx         1 NG7      -0.239700
     20 C09         -4.3900    -9.1550   -14.1980 cx         1 NG7      -0.102900
     21 C10         -3.0980    -8.9390   -14.9900 cx         1 NG7      -0.102900
     22 C11          1.9480    -7.5070    -5.8260 cp         1 NG7      -0.152500
     23 C12          3.1420    -7.7870    -5.1610 ca         1 NG7      -0.090000
     24 C13          3.4690    -7.1040    -4.0060 ca         1 NG7      -0.140000
     25 C14          2.6190    -6.1390    -3.5030 ca         1 NG7      -0.096000
     26 C15          1.4220    -5.8490    -4.1590 ca         1 NG7      -0.159600
     27 C16          1.0890    -6.5320    -5.3280 ca         1 NG7      -0.025000
     28 C17          0.5110    -4.8170    -3.6190 c          1 NG7       0.676700
     29 C18         -0.0680    -3.2530    -1.9240 ca         1 NG7       0.057600
     30 C19         -1.4340    -3.4900    -2.0130 ca         1 NG7      -0.103000
     31 C20         -2.3260    -2.5990    -1.4500 ca         1 NG7      -0.114000
     32 C21         -1.8620    -1.4710    -0.8000 ca         1 NG7      -0.051300
     33 C22         -0.5020    -1.2310    -0.7100 ca         1 NG7      -0.139300
     34 C23          0.3950    -2.1220    -1.2650 ca         1 NG7      -0.128000
     35 C25         -3.5120     0.4470     1.9380 c3         1 NG7       0.119800
     36 C26         -3.4630     0.2380     3.4530 c3         1 NG7       0.163800
     37 C27         -3.5180    -2.1590     3.1250 c3         1 NG7       0.163800
     38 C28         -3.5670    -1.9500     1.6090 c3         1 NG7       0.119800
     39 C30         -6.2550     0.1020     4.3650 c3         1 NG7      -0.095100
     40 H01          2.7200   -10.7730    -8.9980 ha         1 NG7       0.151000
     41 HN03        -0.9120   -10.7960   -12.6440 hn         1 NG7       0.348500
     42 HN04         1.7670    -4.2220    -2.1260 hn         1 NG7       0.328500
     43 H05          3.3010    -9.5570    -6.9420 ha         1 NG7       0.144000
     44 H08         -3.0880   -10.9380   -14.0380 hc         1 NG7       0.095700
     45 H09         -5.1400    -9.7660   -14.6860 hc         1 NG7       0.088700
     46 H09A        -4.6880    -8.3350   -13.5570 hc         1 NG7       0.088700
     47 H10         -2.6060    -7.9870   -14.8310 hc         1 NG7       0.088700
     48 H10A        -3.0580    -9.4190   -15.9600 hc         1 NG7       0.088700
     49 H12          3.8130    -8.5420    -5.5510 ha         1 NG7       0.136000
     50 H13          4.3970    -7.3250    -3.4930 ha         1 NG7       0.137000
     51 H14          2.8810    -5.6080    -2.5950 ha         1 NG7       0.125000
     52 H16          0.1610    -6.3110    -5.8420 ha         1 NG7       0.183000
     53 H19         -1.7990    -4.3740    -2.5220 ha         1 NG7       0.167000
     54 H20         -3.3910    -2.7840    -1.5180 ha         1 NG7       0.141000
     55 H23          1.4590    -1.9200    -1.2170 ha         1 NG7       0.148000
     56 H24         -2.5230     0.5140    -0.4050 h1         1 NG7       0.050200
     57 H24A        -3.8230    -0.6690    -0.6030 h1         1 NG7       0.050200
     58 H25         -4.5440     0.5260     1.6180 h1         1 NG7       0.038950
     59 H25A        -2.9780     1.3540     1.6820 h1         1 NG7       0.038950
     60 H26         -3.9560     1.0670     3.9470 h1         1 NG7       0.063200
     61 H26A        -2.4300     0.1820     3.7760 h1         1 NG7       0.063200
     62 H27         -2.4860    -2.2370     3.4440 h1         1 NG7       0.063200
     63 H27A        -4.0510    -3.0660     3.3810 h1         1 NG7       0.063200
     64 H28         -4.5990    -1.8940     1.2870 h1         1 NG7       0.038950
     65 H28A        -3.0730    -2.7790     1.1160 h1         1 NG7       0.038950
     66 H29         -6.0410    -1.9040     3.6230 h1         1 NG7       0.033200
     67 H29A        -5.6970    -0.6460     2.4280 h1         1 NG7       0.033200
     68 H30         -7.2860    -0.1820     4.5340 hc         1 NG7       0.039367
     69 H30A        -5.7240     0.1160     5.3090 hc         1 NG7       0.039367
     70 H30B        -6.2210     1.0880     3.9170 hc         1 NG7       0.039367
     71 C24         -2.8370    -0.5000    -0.1880 c3         1 NG7       0.191100
     72 N04          0.8380    -4.1530    -2.4930 ns         1 NG7      -0.474100
     73 C29         -5.5810    -0.9360     3.4650 c3         1 NG7       0.149800
     74 O           -0.5310    -4.5650    -4.1930 o          1 NG7      -0.586100
@<TRIPOS>BOND
     1    10     1 1
     2     6     1 1
     3     1     2 1
     4     1    33 1
     5    73     3 1
     6     3    37 1
     7     3    36 1
     8    74    28 2
     9    17     4 1
    10     4    12 1
    11     9     5 ar
    12     5    15 ar
    13     5    40 1
    14    12     7 ar
    15     7    14 ar
    16     8    18 2
    17    11     9 1
    18     9    12 ar
    19    17    11 2
    20    18    13 1
    21    13    17 1
    22    13    41 1
    23    15    14 ar
    24    14    22 1
    25    29    72 1
    26    28    72 1
    27    72    42 1
    28    15    43 1
    29    38    16 1
    30    16    71 1
    31    16    35 1
    32    19    18 1
    33    20    19 1
    34    21    19 1
    35    19    44 1
    36    20    21 1
    37    20    45 1
    38    20    46 1
    39    21    47 1
    40    21    48 1
    41    27    22 ar
    42    22    23 ar
    43    23    24 ar
    44    23    49 1
    45    25    24 ar
    46    24    50 1
    47    26    25 ar
    48    25    51 1
    49    27    26 ar
    50    28    26 1
    51    27    52 1
    52    34    29 ar
    53    29    30 ar
    54    31    30 ar
    55    30    53 1
    56    32    31 ar
    57    31    54 1
    58    71    32 1
    59    33    32 ar
    60    33    34 ar
    61    34    55 1
    62    71    56 1
    63    71    57 1
    64    36    35 1
    65    35    58 1
    66    35    59 1
    67    36    60 1
    68    36    61 1
    69    37    38 1
    70    37    62 1
    71    37    63 1
    72    38    64 1
    73    38    65 1
    74    73    39 1
    75    73    66 1
    76    73    67 1
    77    39    68 1
    78    39    69 1
    79    39    70 1
@<TRIPOS>SUBSTRUCTURE
     1 NG7         1 TEMP              0 ****  ****    0 ROOT
