@<TRIPOS>MOLECULE
molecule
   64    67     1     0     0
SMALL
bcc


@<TRIPOS>ATOM
      1 C1           0.0000     0.0000     0.0000 c3         1 NGI      -0.112100
      2 N1           2.0180     0.0000     1.3810 ns         1 NGI      -0.589900
      3 O1           4.1310    -0.0010     0.7050 o          1 NGI      -0.577100
      4 C2           1.5300     0.0000     0.0000 c3         1 NGI       0.112000
      5 N2           7.0780     0.8370     4.3560 na         1 NGI      -0.264000
      6 O2           5.2870    -0.0860     3.0710 os         1 NGI      -0.376600
      7 C3           3.3430    -0.0010     1.6270 c          1 NGI       0.656100
      8 N3           9.0070     1.5300     3.6070 nc         1 NGI      -0.579100
      9 O3           4.3690     1.6800     6.0010 oh         1 NGI      -0.560800
     10 C4           3.8460    -0.0010     3.0480 c3         1 NGI       0.061100
     11 N4          11.4380     2.0040     5.4250 nv         1 NGI      -0.985500
     12 O4           2.3390     1.2230     4.5340 oh         1 NGI      -0.580800
     13 C5           5.6760     0.4110     4.3710 c3         1 NGI       0.262800
     14 N5           9.9780     1.3250     7.1460 nb         1 NGI      -0.873000
     15 O5          14.1350     1.0470    18.6570 o          1 NGI      -0.853800
     16 C6           4.7500     1.6210     4.6250 c3         1 NGI       0.085100
     17 N6           8.6160     0.6540     8.9210 nu         1 NGI      -0.897900
     18 O6          15.3710     1.6920    16.9410 o          1 NGI      -0.853800
     19 C7           3.5180     1.3430     3.7350 c3         1 NGI       0.087100
     20 N7           7.7780     0.7040     6.7460 nb         1 NGI      -0.864000
     21 C8           7.7940     1.2150     3.2580 cd         1 NGI       0.404700
     22 C9           9.1440     1.3820     4.9480 ca         1 NGI      -0.264200
     23 C10         10.1980     1.5720     5.8600 ca         1 NGI       0.821200
     24 C11          8.7950     0.8960     7.5690 ca         1 NGI       1.005900
     25 C12          9.7230     0.8720     9.8570 c3         1 NGI       0.247800
     26 C13          9.2640     0.5340    11.2770 c3         1 NGI      -0.047100
     27 C14         10.4020     0.7580    12.2390 ca         1 NGI      -0.118300
     28 C15         10.5680     1.9940    12.8360 ca         1 NGI      -0.125500
     29 C16         11.6120     2.2000    13.7180 ca         1 NGI      -0.131000
     30 C17         12.4900     1.1710    14.0030 ca         1 NGI      -0.048300
     31 C18         13.6280     1.3960    14.9660 c3         1 NGI      -0.029100
     32 C19         13.1700     1.0570    16.3850 c3         1 NGI      -0.178400
     33 C20         14.3090     1.2820    17.3470 c          1 NGI       0.890600
     34 C21         12.3240    -0.0640    13.4070 ca         1 NGI      -0.131000
     35 C22         11.2760    -0.2730    12.5290 ca         1 NGI      -0.125500
     36 C23          7.9090     0.9330     5.4430 ca         1 NGI       0.524800
     37 H1          -0.3610     0.9180     0.4480 hc         1 NGI       0.043033
     38 H1A         -0.3610    -0.0710    -1.0190 hc         1 NGI       0.043033
     39 H1B         -0.3610    -0.8470     0.5710 hc         1 NGI       0.043033
     40 HN1          1.3680    -0.0350     2.1410 hn         1 NGI       0.319500
     41 H2           1.8910    -0.8840    -0.5110 h1         1 NGI       0.054200
     42 H2A          1.8910     0.8850    -0.5100 h1         1 NGI       0.054200
     43 HO3          4.2390     2.5790     6.2530 ho         1 NGI       0.408000
     44 H4           3.4130    -0.8230     3.6070 h1         1 NGI       0.088700
     45 HN4         11.5990     2.1620     4.4490 hn         1 NGI       0.449300
     46 HN4A        12.1740     2.1570     6.0850 hn         1 NGI       0.449300
     47 HO4          1.8060     1.9930     4.4260 ho         1 NGI       0.405000
     48 H5           5.5160    -0.3490     5.1260 h2         1 NGI       0.110700
     49 H6           5.2360     2.5390     4.3200 h1         1 NGI       0.062700
     50 HN6          7.7310     0.3320     9.2590 hn         1 NGI       0.455800
     51 H7           3.4030     2.1260     2.9950 h1         1 NGI       0.055700
     52 H8           7.4100     1.2470     2.2460 h5         1 NGI       0.087800
     53 H12         10.0320     1.9090     9.8150 h1         1 NGI       0.055700
     54 H12A        10.5560     0.2360     9.5850 h1         1 NGI       0.055700
     55 H13          8.4310     1.1700    11.5490 hc         1 NGI       0.045200
     56 H13A         8.9560    -0.5040    11.3190 hc         1 NGI       0.045200
     57 H15          9.8800     2.8010    12.6120 ha         1 NGI       0.116500
     58 H16         11.7430     3.1690    14.1860 ha         1 NGI       0.135000
     59 H18         14.4620     0.7610    14.6940 hc         1 NGI       0.056700
     60 H18A        13.9350     2.4340    14.9240 hc         1 NGI       0.056700
     61 H19         12.8620     0.0190    16.4270 hc         1 NGI       0.032700
     62 H19A        12.3360     1.6930    16.6580 hc         1 NGI       0.032700
     63 H21         13.0100    -0.8710    13.6320 ha         1 NGI       0.135000
     64 H22         11.1460    -1.2410    12.0620 ha         1 NGI       0.116500
@<TRIPOS>BOND
     1     4     1 1
     2     1    37 1
     3     1    38 1
     4     1    39 1
     5     7     2 1
     6     2     4 1
     7     2    40 1
     8     3     7 2
     9     4    41 1
    10     4    42 1
    11    36     5 1
    12     5    21 1
    13     5    13 1
    14    13     6 1
    15     6    10 1
    16    10     7 1
    17    22     8 1
    18     8    21 2
    19    16     9 1
    20     9    43 1
    21    10    19 1
    22    10    44 1
    23    11    23 1
    24    11    45 1
    25    11    46 1
    26    19    12 1
    27    12    47 1
    28    13    16 1
    29    13    48 1
    30    14    23 ar
    31    14    24 ar
    32    15    33 1
    33    16    19 1
    34    16    49 1
    35    25    17 1
    36    17    24 1
    37    17    50 1
    38    18    33 1
    39    19    51 1
    40    24    20 ar
    41    20    36 ar
    42    21    52 1
    43    23    22 ar
    44    22    36 ar
    45    26    25 1
    46    25    53 1
    47    25    54 1
    48    27    26 1
    49    26    55 1
    50    26    56 1
    51    35    27 ar
    52    28    27 ar
    53    29    28 ar
    54    28    57 1
    55    30    29 ar
    56    29    58 1
    57    31    30 1
    58    30    34 ar
    59    31    32 1
    60    31    59 1
    61    31    60 1
    62    33    32 1
    63    32    61 1
    64    32    62 1
    65    34    35 ar
    66    34    63 1
    67    35    64 1
@<TRIPOS>SUBSTRUCTURE
     1 NGI         1 TEMP              0 ****  ****    0 ROOT
