@<TRIPOS>MOLECULE
NGJ
   26    27     1     0     0
SMALL
bcc


@<TRIPOS>ATOM
      1 CAL          0.0000     0.0000     0.0000 c3         1 NGJ       0.025800
      2 CAI          1.5060     0.0000     0.0000 cc         1 NGJ      -0.140600
      3 CAH          2.1540     0.0000     1.1760 cd         1 NGJ      -0.163200
      4 CAE          3.6170     0.0010     1.1920 ca         1 NGJ      -0.056800
      5 CAD          4.3460     0.0000     2.3890 ca         1 NGJ       0.040600
      6 NAM          3.6830     0.0010     3.6180 nv         1 NGJ      -0.473200
      7 CAC          5.7290     0.0000     2.3420 ca         1 NGJ      -0.144000
      8 CAB          6.3960     0.0000     1.1250 ca         1 NGJ      -0.085000
      9 CAA          5.6980     0.0010    -0.0620 ca         1 NGJ      -0.072000
     10 CAF          4.3020     0.0000    -0.0430 ca         1 NGJ      -0.129600
     11 CAG          3.5100     0.0000    -1.2790 c          1 NGJ       0.609100
     12 OAK          4.0620     0.0000    -2.3640 o          1 NGJ      -0.685500
     13 NAJ          2.1650    -0.0060    -1.1980 ns         1 NGJ       0.041900
     14 CAN         -0.5110     1.4370    -0.1260 c3         1 NGJ       0.006900
     15 HAL1        -0.3610    -0.5860    -0.8370 hc         1 NGJ       0.021700
     16 HAL2        -0.3610    -0.4320     0.9260 hc         1 NGJ       0.021700
     17 HAN1        -0.0140     2.0620     0.6060 hc         1 NGJ       0.006700
     18 HAN2        -0.3000     1.8090    -1.1210 hc         1 NGJ       0.006700
     19 HAN3        -1.5800     1.4570     0.0480 hc         1 NGJ       0.006700
     20 HAH          1.6020    -0.1320     2.0990 ha         1 NGJ       0.122000
     21 HAJ          1.6300    -0.0160    -2.0440 hn         1 NGJ       0.169500
     22 HAM1         2.8120     0.4830     3.7170 hn         1 NGJ       0.269300
     23 HAM2         4.0770    -0.4860     4.3990 hn         1 NGJ       0.269300
     24 HAC          6.2960    -0.0000     3.2650 ha         1 NGJ       0.106000
     25 HAB          7.4790     0.0000     1.1090 ha         1 NGJ       0.102000
     26 HAA          6.2300     0.0010    -1.0060 ha         1 NGJ       0.126000
@<TRIPOS>BOND
     1     1     2 1   
     2     1    14 1   
     3     1    15 1   
     4     1    16 1   
     5     2     3 2   
     6     2    13 1   
     7     3     4 1   
     8     3    20 1   
     9     4     5 ar  
    10     4    10 ar  
    11     5     6 1   
    12     5     7 ar  
    13     6    22 1   
    14     6    23 1   
    15     7     8 ar  
    16     7    24 1   
    17     8     9 ar  
    18     8    25 1   
    19     9    10 ar  
    20     9    26 1   
    21    10    11 1   
    22    11    12 2   
    23    11    13 1   
    24    13    21 1   
    25    14    17 1   
    26    14    18 1   
    27    14    19 1   
@<TRIPOS>SUBSTRUCTURE
     1 NGJ         1 TEMP              0 ****  ****    0 ROOT
