@<TRIPOS>MOLECULE
molecule
   33    33     1     0     0
SMALL
bcc


@<TRIPOS>ATOM
      1 C1           0.0000     0.0000     0.0000 c3         1 NGK       0.312900
      2 C2           1.5300     0.0000     0.0000 c3         1 NGK       0.085700
      3 C3           2.0310     0.0000     1.4480 c3         1 NGK       0.136100
      4 C4           1.3770     1.1680     2.1930 c3         1 NGK       0.122100
      5 C5          -0.1420     1.0790     2.0280 c3         1 NGK       0.130100
      6 C6          -0.8040     2.2230     2.7970 c3         1 NGK       0.144400
      7 C7           2.2480    -1.1620    -2.0170 c          1 NGK       0.653100
      8 C8           2.7530    -2.3920    -2.7270 c3         1 NGK      -0.174100
      9 N            2.0200    -1.1950    -0.6900 ns         1 NGK      -0.571900
     10 O1          -0.4750    -1.1540     0.6960 oh         1 NGK      -0.639800
     11 O3           3.4510     0.1530     1.4700 oh         1 NGK      -0.548800
     12 O4           1.8450     2.4030     1.6510 os         1 NGK      -0.551500
     13 O5          -0.4840     1.1750     0.6470 os         1 NGK      -0.380600
     14 O6          -2.2230     2.1380     2.6500 oh         1 NGK      -0.626800
     15 O7           2.0470    -0.1420    -2.6420 o          1 NGK      -0.610100
     16 S            2.5130     3.1580     2.7920 s6         1 NGK       1.551300
     17 O1S          2.9000     4.4130     2.2500 o          1 NGK      -0.737867
     18 O2S          3.8100     2.4330     3.1190 o          1 NGK      -0.737867
     19 O3S          1.6720     2.9750     3.9220 o          1 NGK      -0.737867
     20 H1          -0.3580    -0.0180    -1.0220 h2         1 NGK       0.068700
     21 H2           1.8890     0.8880    -0.5050 h1         1 NGK       0.138700
     22 H3           1.7550    -0.9320     1.9250 h1         1 NGK       0.030700
     23 H4           1.6280     1.1100     3.2450 h1         1 NGK       0.113700
     24 H5          -0.4890     0.1290     2.4170 h1         1 NGK       0.059700
     25 H6C1        -0.4560     3.1710     2.4030 h1         1 NGK       0.058700
     26 H6C2        -0.5440     2.1510     3.8460 h1         1 NGK       0.058700
     27 H8C1         3.7280    -2.6590    -2.3380 hc         1 NGK       0.053700
     28 H8C2         2.0630    -3.2120    -2.5650 hc         1 NGK       0.053700
     29 H8C3         2.8300    -2.1900    -3.7890 hc         1 NGK       0.053700
     30 H            2.1900    -2.0360    -0.1750 hn         1 NGK       0.307500
     31 HA          -1.2090    -1.5200     0.2330 ho         1 NGK       0.401000
     32 HB           3.8390    -0.5720     1.9310 ho         1 NGK       0.390000
     33 H6          -2.6350     2.7840     3.1990 ho         1 NGK       0.392000
@<TRIPOS>BOND
     1     1     2 1
     2     1    10 1
     3     1    13 1
     4     1    20 1
     5     2     3 1
     6     2     9 1
     7     2    21 1
     8     3     4 1
     9     3    11 1
    10     3    22 1
    11     4     5 1
    12     4    12 1
    13     4    23 1
    14     5     6 1
    15     5    13 1
    16     5    24 1
    17     6    14 1
    18     6    25 1
    19     6    26 1
    20     7     8 1
    21     7     9 1
    22     7    15 2
    23     8    27 1
    24     8    28 1
    25     8    29 1
    26     9    30 1
    27    10    31 1
    28    11    32 1
    29    12    16 1
    30    14    33 1
    31    16    17 1
    32    16    18 1
    33    16    19 1
@<TRIPOS>SUBSTRUCTURE
     1 NGK         1 TEMP              0 ****  ****    0 ROOT
