@<TRIPOS>MOLECULE
NGO
   28    29     1     0     0
SMALL
bcc


@<TRIPOS>ATOM
      1 C1           0.0000     0.0000     0.0000 c3         1 NGO       0.388900
      2 C2           1.5270     0.0000     0.0000 c3         1 NGO      -0.191000
      3 C3           2.1520     0.0000     1.3860 c3         1 NGO       0.149100
      4 C4           1.3420     0.8440     2.3660 c3         1 NGO       0.151100
      5 C5          -0.1170     0.3810     2.3060 c3         1 NGO       0.138100
      6 C6          -0.9270     1.0890     3.3930 c3         1 NGO       0.232400
      7 C7           0.7440    -2.0290    -0.5720 c2         1 NGO       0.408600
      8 C8           0.6620    -3.4320    -1.1150 c3         1 NGO      -0.039400
      9 N2           1.8150    -1.3150    -0.6270 nu         1 NGO       0.174900
     10 O1          -0.3010    -1.4050     0.0130 os         1 NGO      -0.341400
     11 O3           3.4770     0.5290     1.3000 oh         1 NGO      -0.564800
     12 O4           1.8510     0.6660     3.6890 oh         1 NGO      -0.563800
     13 O5          -0.6400     0.7070     1.0260 os         1 NGO      -0.303600
     14 O6          -2.2580     0.5700     3.4100 oh         1 NGO      -0.587800
     15 HC1         -0.3360     0.4080    -0.9460 h2         1 NGO       0.073700
     16 HC2          1.9160     0.8100    -0.6050 h1         1 NGO       0.118700
     17 HC3          2.1960    -1.0190     1.7520 h1         1 NGO       0.016700
     18 HC4          1.4040     1.8870     2.0830 h1         1 NGO       0.045700
     19 HC5         -0.1620    -0.6920     2.4520 h1         1 NGO       0.036700
     20 HC61        -0.4620     0.9210     4.3570 h1         1 NGO       0.012700
     21 HC62        -0.9570     2.1520     3.1870 h1         1 NGO       0.012700
     22 HC81         1.1640    -4.1120    -0.4370 hc         1 NGO       0.065033
     23 HC82         1.1420    -3.4720    -2.0860 hc         1 NGO       0.065033
     24 HC83        -0.3770    -3.7210    -1.2130 hc         1 NGO       0.065033
     25 HN           2.7100    -1.7440    -0.5010 hn         1 NGO       0.190700
     26 HO3          4.0900    -0.1020     1.6390 ho         1 NGO       0.415000
     27 HO4          2.3780     1.4120     3.9260 ho         1 NGO       0.420000
     28 HO6         -2.7430     0.9710     4.1130 ho         1 NGO       0.412000
@<TRIPOS>BOND
     1     1     2 1   
     2     1    10 1   
     3     1    13 1   
     4     1    15 1   
     5     2     3 1   
     6     2     9 1   
     7     2    16 1   
     8     3     4 1   
     9     3    11 1   
    10     3    17 1   
    11     4     5 1   
    12     4    12 1   
    13     4    18 1   
    14     5     6 1   
    15     5    13 1   
    16     5    19 1   
    17     6    14 1   
    18     6    20 1   
    19     6    21 1   
    20     7     8 1   
    21     7     9 2   
    22     7    10 1   
    23     8    22 1   
    24     8    23 1   
    25     8    24 1   
    26     9    25 1   
    27    11    26 1   
    28    12    27 1   
    29    14    28 1   
@<TRIPOS>SUBSTRUCTURE
     1 NGO         1 TEMP              0 ****  ****    0 ROOT
