@<TRIPOS>MOLECULE
NGQ
   22    21     1     0     0
SMALL
bcc


@<TRIPOS>ATOM
      1 C           0.2080    0.5680   -0.0970 c         1 NGQ      0.888600
      2 N           2.5750    1.1410   -0.8030 nh        1 NGQ     -0.787200
      3 O1         -0.6160   -0.3570    0.1420 o         1 NGQ     -0.860800
      4 O2         -0.1540    1.7420   -0.4280 o         1 NGQ     -0.860800
      5 CA          1.7300    0.2360   -0.0170 c3        1 NGQ      0.043500
      6 CB          2.1550    0.2030    1.4590 c3        1 NGQ     -0.043400
      7 CD          3.9590   -0.4260    3.1350 c         1 NGQ      0.903600
      8 CF          2.2800    1.0870   -2.2300 c2        1 NGQ      0.751100
      9 NF          2.7930    0.1840   -3.0350 n2        1 NGQ     -0.919100
     10 CG          3.5110   -0.4280    1.6690 c3        1 NGQ     -0.180400
     11 NG          1.4900    2.1490   -2.7790 nh        1 NGQ     -0.917800
     12 OE1         3.9530    0.6570    3.7930 o         1 NGQ     -0.875300
     13 OE2         4.3730   -1.5180    3.6360 o         1 NGQ     -0.875300
     14 HN          2.4460    2.0750   -0.4500 hn        1 NGQ      0.372800
     15 HA          1.8660   -0.8010   -0.4410 h1        1 NGQ      0.046700
     16 HB          1.3740   -0.3880    2.0060 hc        1 NGQ      0.049700
     17 HBA         2.1580    1.2370    1.8920 hc        1 NGQ      0.049700
     18 HNF         3.3840   -0.4770   -2.5790 hn        1 NGQ      0.383400
     19 HG          4.2870    0.1290    1.0850 hc        1 NGQ      0.019700
     20 HGA         3.4980   -1.4840    1.2950 hc        1 NGQ      0.019700
     21 HNG         0.7700    2.4370   -2.1330 hn        1 NGQ      0.395300
     22 HNGA        1.1050    1.9200   -3.6710 hn        1 NGQ      0.395300
@<TRIPOS>BOND
     1    1    3 1
     2    1    4 1
     3    1    5 1
     4    2    5 1
     5    2    8 1
     6    2   14 1
     7    5    6 1
     8    5   15 1
     9    6   10 1
    10    6   16 1
    11    6   17 1
    12    7   10 1
    13    7   12 1
    14    7   13 1
    15    8    9 2
    16    8   11 1
    17    9   18 1
    18   10   19 1
    19   10   20 1
    20   11   21 1
    21   11   22 1
@<TRIPOS>SUBSTRUCTURE
     1 NGQ         1 TEMP              0 ****  ****    0 ROOT
