@<TRIPOS>MOLECULE
NGR
   45    46     1     0     0
SMALL
bcc


@<TRIPOS>ATOM
      1 O2          0.0920   -0.0180   -0.1290 oh        1 NGR     -0.595800
      2 C1          2.0820    1.2400   -0.7370 c3        1 NGR      0.299900
      3 OA          1.4180    2.3450   -0.1400 os        1 NGR     -0.460600
      4 C2          1.5040   -0.0310   -0.0870 c3        1 NGR      0.092100
      5 C3          2.0020   -0.1960    1.3550 c3        1 NGR      0.074100
      6 O3          1.7160   -1.4960    1.8430 oh        1 NGR     -0.605800
      7 C4          3.5300   -0.0310    1.4130 c3        1 NGR      0.127100
      8 O4          3.9900   -0.0690    2.7510 oh        1 NGR     -0.592800
      9 C5          3.8890    1.3470    0.8360 c3        1 NGR      0.128100
     10 O5          3.4620    1.4110   -0.5320 os        1 NGR     -0.424600
     11 C6          5.4010    1.5680    0.8150 c3        1 NGR      0.138400
     12 O6          5.6060    2.9650    0.6680 oh        1 NGR     -0.606800
     13 C11         1.9940    6.0470   -0.3370 c3        1 NGR      0.296900
     14 O11         3.1660    6.0820   -1.1150 oh        1 NGR     -0.625800
     15 HO11        3.2330    6.9640   -1.5020 ho        1 NGR      0.424000
     16 C12         1.9020    4.6530    0.3210 c3        1 NGR      0.137100
     17 O12         3.0420    4.4020    1.1020 oh        1 NGR     -0.581800
     18 HO12        3.8030    4.3070    0.5060 ho        1 NGR      0.439000
     19 C13         1.6770    3.5990   -0.7740 c3        1 NGR      0.079100
     20 C14         0.4390    3.9990   -1.5930 c3        1 NGR      0.093100
     21 O14         0.2100    3.0760   -2.6450 oh        1 NGR     -0.605800
     22 HO14       -0.0300    2.2390   -2.2240 ho        1 NGR      0.418000
     23 C15         0.6900    5.3740   -2.2340 c3        1 NGR      0.105100
     24 O15         0.9230    6.3440   -1.2110 os        1 NGR     -0.442600
     25 C16        -0.5270    5.8700   -3.0220 c3        1 NGR      0.144400
     26 O16        -0.5180    5.3560   -4.3350 oh        1 NGR     -0.597800
     27 HO16       -0.5070    4.3910   -4.2700 ho        1 NGR      0.418000
     28 H1          1.9540    1.2330   -1.8570 h2        1 NGR      0.093700
     29 H2          1.8020   -0.9260   -0.7040 h1        1 NGR      0.102700
     30 H3          1.5100    0.5710    2.0180 h1        1 NGR      0.066700
     31 HO2        -0.2050    0.7780    0.3340 ho        1 NGR      0.419000
     32 HO3         0.7790   -1.6580    1.6710 ho        1 NGR      0.422000
     33 H4          4.0210   -0.8510    0.8190 h1        1 NGR      0.056700
     34 HO4         3.6260   -0.8750    3.1420 ho        1 NGR      0.425000
     35 H5          3.3820    2.1660    1.4230 h1        1 NGR      0.107700
     36 H6          5.8310    1.2090    1.7880 h1        1 NGR      0.047700
     37 H6A         5.8670    1.0170   -0.0440 h1        1 NGR      0.047700
     38 HO6         6.5590    3.1050    0.6770 ho        1 NGR      0.406000
     39 H11         1.9690    6.8650    0.4360 h2        1 NGR      0.087700
     40 H13         2.5870    3.5350   -1.4330 h1        1 NGR      0.098700
     41 H14         1.5900    5.3150   -2.9070 h1        1 NGR      0.078700
     42 H15        -0.4620    4.0420   -0.9200 h1        1 NGR      0.056700
     43 H16        -0.4820    6.9850   -3.1410 h1        1 NGR      0.056200
     44 H16A       -1.4730    5.5830   -2.4910 h1        1 NGR      0.056200
     45 H12         1.0440    4.6460    1.0500 h1        1 NGR      0.093700
@<TRIPOS>BOND
     1    1    4 1   
     2    1   31 1   
     3    2    3 1   
     4    2    4 1   
     5    2   10 1   
     6    2   28 1   
     7    3   19 1   
     8    4    5 1   
     9    4   29 1   
    10    5    6 1   
    11    5    7 1   
    12    5   30 1   
    13    6   32 1   
    14    7    8 1   
    15    7    9 1   
    16    7   33 1   
    17    8   34 1   
    18    9   10 1   
    19    9   11 1   
    20    9   35 1   
    21   11   12 1   
    22   11   36 1   
    23   11   37 1   
    24   12   38 1   
    25   13   14 1   
    26   13   16 1   
    27   13   24 1   
    28   13   39 1   
    29   14   15 1   
    30   16   17 1   
    31   16   19 1   
    32   16   45 1   
    33   17   18 1   
    34   19   20 1   
    35   19   40 1   
    36   20   21 1   
    37   20   23 1   
    38   20   42 1   
    39   21   22 1   
    40   23   24 1   
    41   23   25 1   
    42   23   41 1   
    43   25   26 1   
    44   25   43 1   
    45   25   44 1   
    46   26   27 1   
@<TRIPOS>SUBSTRUCTURE
     1 NGR         1 TEMP              0 ****  ****    0 ROOT
