@<TRIPOS>MOLECULE
molecule
   45    46     1     0     0
SMALL
bcc


@<TRIPOS>ATOM
      1 O2           0.0000     0.0000     0.0000 oh         1 NGR      -0.590800
      2 C1           1.9410     1.2520    -0.7150 c3         1 NGR       0.327900
      3 OA           1.4180     2.4160    -0.0700 os         1 NGR      -0.425600
      4 C2           1.4290     0.0000     0.0000 c3         1 NGR       0.122100
      5 C3           1.9410     0.0000     1.4430 c3         1 NGR       0.113100
      6 O3           1.5300    -1.2020     2.0970 oh         1 NGR      -0.612800
      7 C4           3.4710     0.0780     1.4310 c3         1 NGR       0.106100
      8 O4           3.9560     0.1520     2.7720 oh         1 NGR      -0.600800
      9 C5           3.9040     1.3280     0.6610 c3         1 NGR       0.140100
     10 O5           3.3680     1.2790    -0.6640 os         1 NGR      -0.416600
     11 C6           5.4310     1.3820     0.5920 c3         1 NGR       0.152400
     12 O6           5.8380     2.6170    -0.0010 oh         1 NGR      -0.589800
     13 C11          1.9390     6.0950    -0.6160 c3         1 NGR       0.311900
     14 O11          3.1070     6.0330    -1.4380 oh         1 NGR      -0.600800
     15 HO11         3.5350     6.8730    -1.4390 ho         1 NGR       0.412000
     16 C12          1.8020     4.7920     0.1750 c3         1 NGR       0.128100
     17 O12          2.9800     4.5820     0.9570 oh         1 NGR      -0.571800
     18 HO12         2.9260     5.0900     1.7500 ho         1 NGR       0.398000
     19 C13          1.6210     3.6270    -0.8020 c3         1 NGR       0.151100
     20 C14          0.4010     3.9010    -1.6870 c3         1 NGR       0.097100
     21 O14          0.2650     2.8550    -2.6500 oh         1 NGR      -0.601800
     22 HO14        -0.6460     2.6350    -2.7490 ho         1 NGR       0.407000
     23 C15          0.5910     5.2380    -2.4060 c3         1 NGR       0.129100
     24 O15          0.7850     6.2740    -1.4400 os         1 NGR      -0.419600
     25 C16         -0.6490     5.5480    -3.2450 c3         1 NGR       0.148400
     26 O16         -0.4250     6.7360    -4.0070 oh         1 NGR      -0.596800
     27 HO16        -1.1500     6.8750    -4.5930 ho         1 NGR       0.400000
     28 H1           1.6190     1.2320    -1.7490 h2         1 NGR       0.103700
     29 H2           1.7950    -0.8820    -0.5120 h1         1 NGR       0.059700
     30 H3           1.5410     0.8590     1.9680 h1         1 NGR       0.076700
     31 HO2         -0.3140    -0.8260    -0.3290 ho         1 NGR       0.406000
     32 HO3          1.0220    -0.9860     2.8620 ho         1 NGR       0.413000
     33 H4           3.8730    -0.8020     0.9440 h1         1 NGR       0.047700
     34 HO4          4.3150    -0.6830     3.0230 ho         1 NGR       0.409000
     35 H5           3.5300     2.2100     1.1670 h1         1 NGR       0.094700
     36 H6           5.8400     1.3100     1.5930 h1         1 NGR       0.029200
     37 H6A          5.7950     0.5560    -0.0070 h1         1 NGR       0.029200
     38 HO6          6.7800     2.6480    -0.0470 ho         1 NGR       0.397000
     39 H11          2.0210     6.9270     0.0730 h2         1 NGR       0.066700
     40 H13          2.5040     3.5370    -1.4230 h1         1 NGR       0.101700
     41 H14         -0.4880     3.9480    -1.0700 h1         1 NGR       0.050700
     42 H15          1.4620     5.1790    -3.0490 h1         1 NGR       0.085700
     43 H16         -0.8480     4.7210    -3.9160 h1         1 NGR       0.028200
     44 H16A        -1.5000     5.6940    -2.5910 h1         1 NGR       0.028200
     45 H12          0.9370     4.8550     0.8250 h1         1 NGR       0.053700
@<TRIPOS>BOND
     1     1     4 1
     2     1    31 1
     3     2     3 1
     4     2     4 1
     5     2    10 1
     6     2    28 1
     7     3    19 1
     8     4     5 1
     9     4    29 1
    10     5     6 1
    11     5     7 1
    12     5    30 1
    13     6    32 1
    14     7     8 1
    15     7     9 1
    16     7    33 1
    17     8    34 1
    18     9    10 1
    19     9    11 1
    20     9    35 1
    21    11    12 1
    22    11    36 1
    23    11    37 1
    24    12    38 1
    25    13    14 1
    26    13    16 1
    27    13    24 1
    28    13    39 1
    29    14    15 1
    30    16    17 1
    31    16    19 1
    32    16    45 1
    33    17    18 1
    34    19    20 1
    35    19    40 1
    36    20    21 1
    37    20    23 1
    38    20    41 1
    39    21    22 1
    40    23    24 1
    41    23    25 1
    42    23    42 1
    43    25    26 1
    44    25    43 1
    45    25    44 1
    46    26    27 1
@<TRIPOS>SUBSTRUCTURE
     1 NGR         1 TEMP              0 ****  ****    0 ROOT
