@<TRIPOS>MOLECULE
molecule
   27    28     1     0     0
SMALL
bcc


@<TRIPOS>ATOM
      1 C1           0.0000     0.0000     0.0000 c3         1 NGT       0.242200
      2 C2           1.5230     0.0000     0.0000 c3         1 NGT       0.070500
      3 C3           2.1420     0.0000     1.3880 c3         1 NGT       0.141100
      4 C4           1.2490     0.6960     2.4090 c3         1 NGT       0.109100
      5 C5          -0.1460     0.0660     2.3100 c3         1 NGT       0.121100
      6 C6          -1.0200     0.5540     3.4670 c3         1 NGT       0.153400
      7 C7           1.2910    -2.1560    -1.0390 c2         1 NGT       0.516200
      8 C8           1.6850    -3.3960    -1.7990 c3         1 NGT      -0.097400
      9 N2           2.0450    -1.1520    -0.7350 n2         1 NGT      -0.637900
     10 S1          -0.3190    -1.7570    -0.3750 ss         1 NGT      -0.425300
     11 O3           3.4010     0.6730     1.3390 oh         1 NGT      -0.600800
     12 O4           1.7760     0.5090     3.7230 oh         1 NGT      -0.598800
     13 O5          -0.7150     0.4670     1.0740 os         1 NGT      -0.326600
     14 O6          -2.3160    -0.0390     3.3680 oh         1 NGT      -0.597800
     15 HC1         -0.3180     0.5770    -0.8600 h2         1 NGT       0.105700
     16 HC2          1.8530     0.8970    -0.5100 h1         1 NGT       0.108700
     17 HC3          2.2980    -1.0250     1.7020 h1         1 NGT       0.062700
     18 HC4          1.1890     1.7530     2.1800 h1         1 NGT       0.061700
     19 HC5         -0.0610    -1.0140     2.3390 h1         1 NGT       0.082700
     20 HC61        -1.1120     1.6330     3.4200 h1         1 NGT       0.038200
     21 HC62        -0.5640     0.2710     4.4080 h1         1 NGT       0.038200
     22 HC81         2.4180    -3.1400    -2.5540 hc         1 NGT       0.065700
     23 HC82         2.1110    -4.1190    -1.1130 hc         1 NGT       0.065700
     24 HC83         0.8100    -3.8210    -2.2750 hc         1 NGT       0.065700
     25 HO3          4.0950     0.0530     1.4850 ho         1 NGT       0.416000
     26 HO4          2.1760     1.3100     4.0190 ho         1 NGT       0.415000
     27 HO6         -2.8310     0.2060     4.1190 ho         1 NGT       0.404000
@<TRIPOS>BOND
     1     1     2 1
     2     1    10 1
     3     1    13 1
     4     1    15 1
     5     2     3 1
     6     2     9 1
     7     2    16 1
     8     3     4 1
     9     3    11 1
    10     3    17 1
    11     4     5 1
    12     4    12 1
    13     4    18 1
    14     5     6 1
    15     5    13 1
    16     5    19 1
    17     6    14 1
    18     6    20 1
    19     6    21 1
    20     7     8 1
    21     7     9 2
    22     7    10 1
    23     8    22 1
    24     8    23 1
    25     8    24 1
    26    11    25 1
    27    12    26 1
    28    14    27 1
@<TRIPOS>SUBSTRUCTURE
     1 NGT         1 TEMP              0 ****  ****    0 ROOT
