@<TRIPOS>MOLECULE
molecule
   42    45     1     0     0
SMALL
bcc


@<TRIPOS>ATOM
      1 O17          0.0000     0.0000     0.0000 o          1 NGV      -0.502000
      2 C14          1.2160     0.0000     0.0000 c          1 NGV       0.661300
      3 O16          1.8770     0.0000     1.2850 os         1 NGV      -0.485900
      4 C15          1.1730    -0.1630     2.5180 c3         1 NGV       0.149700
      5 C10          2.0720     0.1510    -1.2240 ce         1 NGV      -0.145400
      6 C9           3.4290    -0.1870    -1.1650 c2         1 NGV       0.021600
      7 C13          4.0980    -0.7700     0.0550 c3         1 NGV      -0.066900
      8 C8           4.2380     0.0030    -2.2810 c3         1 NGV      -0.182200
      9 C19          1.5570     0.7140    -2.4080 ca         1 NGV       0.050200
     10 C20          2.3900     0.8710    -3.5170 ca         1 NGV      -0.208600
     11 C7           3.7400     0.5400    -3.4540 c          1 NGV       0.574700
     12 O22          4.5240     0.6830    -4.4380 o          1 NGV      -0.537100
     13 C11          0.1990     1.0720    -2.5460 ca         1 NGV      -0.089000
     14 C18         -0.3140     1.5840    -3.7480 ca         1 NGV      -0.077600
     15 C17          0.5000     1.7840    -4.8630 ca         1 NGV      -0.186600
     16 C5          -0.0370     2.3290    -6.0400 c          1 NGV       0.565300
     17 O20          0.7210     2.5060    -7.0340 o          1 NGV      -0.511100
     18 C6           1.8480     1.4460    -4.7660 ca         1 NGV       0.241100
     19 O21          2.6990     1.5920    -5.7790 oh         1 NGV      -0.469100
     20 C12         -1.6670     1.9050    -3.8310 c          1 NGV       0.549300
     21 O18         -2.4230     1.7070    -2.7600 o          1 NGV      -0.548100
     22 C21         -2.2100     2.4230    -5.0020 ca         1 NGV      -0.080600
     23 C1          -3.5600     2.7390    -5.0780 ca         1 NGV      -0.104000
     24 C2          -4.0810     3.2500    -6.2570 ca         1 NGV      -0.079000
     25 C3          -3.2980     3.4750    -7.3730 ca         1 NGV      -0.215000
     26 C16         -1.4030     2.6330    -6.1260 ca         1 NGV      -0.162600
     27 C4          -1.9520     3.1460    -7.3040 ca         1 NGV       0.197100
     28 O19         -1.1970     3.3410    -8.3740 oh         1 NGV      -0.447100
     29 H151         1.8830    -0.2220     3.3340 h1         1 NGV       0.042700
     30 H152         0.5150     0.6830     2.6730 h1         1 NGV       0.042700
     31 H153         0.5880    -1.0740     2.4830 h1         1 NGV       0.042700
     32 H131         3.5220    -1.6140     0.4140 hc         1 NGV       0.065367
     33 H132         5.0970    -1.1000    -0.2040 hc         1 NGV       0.065367
     34 H133         4.1560    -0.0160     0.8300 hc         1 NGV       0.065367
     35 H81          5.0570     0.6390    -1.9680 hc         1 NGV       0.117200
     36 H82          4.6540    -0.9650    -2.5330 hc         1 NGV       0.117200
     37 H11         -0.4670     0.9510    -1.6990 ha         1 NGV       0.201000
     38 H21          3.0320     2.4740    -5.7860 ho         1 NGV       0.450000
     39 H1          -4.2050     2.5760    -4.2230 ha         1 NGV       0.166000
     40 H2          -5.1340     3.5020    -6.2970 ha         1 NGV       0.138000
     41 H3          -3.7280     3.8740    -8.2830 ha         1 NGV       0.146000
     42 H19         -1.7430     3.3690    -9.1420 ho         1 NGV       0.427000
@<TRIPOS>BOND
     1     1     2 2
     2     2     3 1
     3     2     5 1
     4     3     4 1
     5     4    29 1
     6     4    30 1
     7     4    31 1
     8     5     6 2
     9     5     9 1
    10     6     7 1
    11     6     8 1
    12     7    32 1
    13     7    33 1
    14     7    34 1
    15     8    11 1
    16     8    35 1
    17     8    36 1
    18     9    10 ar
    19     9    13 ar
    20    10    11 1
    21    10    18 ar
    22    11    12 2
    23    13    14 ar
    24    13    37 1
    25    14    15 ar
    26    14    20 1
    27    15    16 1
    28    15    18 ar
    29    16    17 2
    30    16    26 1
    31    18    19 1
    32    19    38 1
    33    20    21 2
    34    20    22 1
    35    22    23 ar
    36    22    26 ar
    37    23    24 ar
    38    23    39 1
    39    24    25 ar
    40    24    40 1
    41    25    27 ar
    42    25    41 1
    43    26    27 ar
    44    27    28 1
    45    28    42 1
@<TRIPOS>SUBSTRUCTURE
     1 NGV         1 TEMP              0 ****  ****    0 ROOT
