@<TRIPOS>MOLECULE
NGV
   42    45     1     0     0
SMALL
bcc


@<TRIPOS>ATOM
      1 O17         0.2700   -0.8280    0.0180 o         1 NGV     -0.526000
      2 C14         1.2930   -0.1460   -0.0690 c         1 NGV      0.644300
      3 O16         1.6860    0.5660    1.0330 os        1 NGV     -0.429900
      4 C15         0.8410    0.4820    2.1830 c3        1 NGV      0.122700
      5 C10         2.1960    0.0190   -1.2290 ce        1 NGV     -0.123400
      6 C9          3.4460   -0.5000   -1.2240 c2        1 NGV     -0.000400
      7 C13         4.0170   -1.2520   -0.0830 c3        1 NGV     -0.080900
      8 C8          4.3380   -0.3730   -2.4020 c3        1 NGV     -0.166200
      9 C19         1.6720    0.7430   -2.3810 ca        1 NGV      0.060200
     10 C20         2.5300    1.0660   -3.4410 ca        1 NGV     -0.198600
     11 C7          3.9610    0.7150   -3.3730 c         1 NGV      0.585700
     12 O22         4.8270    1.2520   -4.0680 o         1 NGV     -0.495100
     13 C11         0.3210    1.1240   -2.4400 ca        1 NGV     -0.134000
     14 C18        -0.1750    1.8000   -3.5480 ca        1 NGV     -0.062600
     15 C17         0.6550    2.1220   -4.6380 ca        1 NGV     -0.240600
     16 C5          0.0930    2.8260   -5.8070 c         1 NGV      0.607300
     17 O20         0.8130    3.4300   -6.6160 o         1 NGV     -0.531100
     18 C6          2.0180    1.7610   -4.5700 ca        1 NGV      0.246100
     19 O21         2.9310    1.9960   -5.5500 oh        1 NGV     -0.468100
     20 C12        -1.6100    2.1770   -3.5520 c         1 NGV      0.579300
     21 O18        -2.2770    2.2160   -2.5110 o         1 NGV     -0.503100
     22 C21        -2.2050    2.4820   -4.8720 ca        1 NGV     -0.095600
     23 C1         -3.5930    2.4710   -5.0110 ca        1 NGV     -0.121000
     24 C2         -4.1740    2.7370   -6.2540 ca        1 NGV     -0.074000
     25 C3         -3.3760    3.0130   -7.3550 ca        1 NGV     -0.204000
     26 C16        -1.3730    2.7740   -5.9650 ca        1 NGV     -0.161600
     27 C4         -1.9750    3.0340   -7.2130 ca        1 NGV      0.174100
     28 O19        -1.1450    3.2830   -8.2740 oh        1 NGV     -0.462100
     29 H151       -0.1850    0.8430    1.9300 h1        1 NGV      0.054033
     30 H152        1.3410    1.1520    2.9240 h1        1 NGV      0.054033
     31 H153        0.7970   -0.5730    2.5450 h1        1 NGV      0.054033
     32 H131        4.9090   -0.7070    0.3190 hc        1 NGV      0.062033
     33 H132        4.3490   -2.2660   -0.4220 hc        1 NGV      0.062033
     34 H133        3.2790   -1.3750    0.7480 hc        1 NGV      0.062033
     35 H81         4.3290   -1.3490   -2.9690 hc        1 NGV      0.097700
     36 H82         5.3970   -0.2020   -2.0620 hc        1 NGV      0.097700
     37 H11        -0.3640    0.8830   -1.6070 ha        1 NGV      0.177000
     38 H21         2.5500    2.5500   -6.2540 ho        1 NGV      0.463000
     39 H1         -4.2230    2.2560   -4.1330 ha        1 NGV      0.163000
     40 H2         -5.2710    2.7270   -6.3580 ha        1 NGV      0.145000
     41 H3         -3.8280    3.2200   -8.3370 ha        1 NGV      0.143000
     42 H19        -1.6940    3.4790   -9.0490 ho        1 NGV      0.423000
@<TRIPOS>BOND
     1    1    2 2   
     2    2    3 1   
     3    2    5 1   
     4    3    4 1   
     5    4   29 1   
     6    4   30 1   
     7    4   31 1   
     8    5    6 2   
     9    5    9 1   
    10    6    7 1   
    11    6    8 1   
    12    7   32 1   
    13    7   33 1   
    14    7   34 1   
    15    8   11 1   
    16    8   35 1   
    17    8   36 1   
    18    9   10 ar  
    19    9   13 ar  
    20   10   11 1   
    21   10   18 ar  
    22   11   12 2   
    23   13   14 ar  
    24   13   37 1   
    25   14   15 ar  
    26   14   20 1   
    27   15   16 1   
    28   15   18 ar  
    29   16   17 2   
    30   16   26 1   
    31   18   19 1   
    32   19   38 1   
    33   20   21 2   
    34   20   22 1   
    35   22   23 ar  
    36   22   26 ar  
    37   23   24 ar  
    38   23   39 1   
    39   24   25 ar  
    40   24   40 1   
    41   25   27 ar  
    42   25   41 1   
    43   26   27 ar  
    44   27   28 1   
    45   28   42 1   
@<TRIPOS>SUBSTRUCTURE
     1 NGV         1 TEMP              0 ****  ****    0 ROOT
