@<TRIPOS>MOLECULE
molecule
   29    30     1     0     0
SMALL
bcc


@<TRIPOS>ATOM
      1 O4           0.0000     0.0000     0.0000 oh         1 NGW      -0.585800
      2 C4           1.4280     0.0000     0.0000 c3         1 NGW       0.086100
      3 C3           1.9430     0.0000     1.4400 c3         1 NGW       0.086100
      4 C5           1.9460    -1.2650    -0.6950 c3         1 NGW       0.135100
      5 O3           1.4790     1.1740     2.1080 oh         1 NGW      -0.591800
      6 C2           3.4750    -0.0220     1.4580 c3         1 NGW       0.084500
      7 N2           3.8860    -0.3500     2.8460 n7         1 NGW      -0.808200
      8 C1           4.0010    -1.1700     0.5660 c3         1 NGW       0.277200
      9 C7           3.5020    -1.7430     3.1830 c3         1 NGW       0.271600
     10 C8           4.4960    -2.3450     4.1790 c3         1 NGW      -0.071100
     11 S1           3.5800    -2.6360     1.5810 ss         1 NGW      -0.398200
     12 O5           3.3720    -1.2230    -0.6930 os         1 NGW      -0.372600
     13 C6           1.4320    -1.3080    -2.1360 c3         1 NGW       0.153400
     14 O6           1.8190    -2.5430    -2.7430 oh         1 NGW      -0.595800
     15 H4          -0.3140     0.8420    -0.2850 ho         1 NGW       0.407000
     16 HA           1.7980     0.8760    -0.5180 h1         1 NGW       0.040700
     17 H3           1.5690    -0.8790     1.9510 h1         1 NGW       0.113700
     18 H5           1.6070    -2.1410    -0.1550 h1         1 NGW       0.092700
     19 HB           1.7220     1.9370     1.6090 ho         1 NGW       0.399000
     20 H2           3.8830     0.9320     1.1470 h1         1 NGW       0.092700
     21 HC           3.4430     0.2820     3.4830 hn         1 NGW       0.379800
     22 H1           5.0750    -1.0920     0.4480 h2         1 NGW       0.123700
     23 H6           1.4190    -2.6140    -3.5940 ho         1 NGW       0.403000
     24 H7           2.4950    -1.7700     3.5800 h2         1 NGW       0.059700
     25 H81C         4.2980    -3.4040     4.2900 hc         1 NGW       0.049700
     26 H82C         4.3870    -1.8550     5.1390 hc         1 NGW       0.049700
     27 H83C         5.5050    -2.2020     3.8130 hc         1 NGW       0.049700
     28 H61C         0.3520    -1.2280    -2.1370 h1         1 NGW       0.035200
     29 H62C         1.8550    -0.4820    -2.6950 h1         1 NGW       0.035200
@<TRIPOS>BOND
     1     1     2 1
     2     2     3 1
     3     2     4 1
     4     3     5 1
     5     3     6 1
     6     6     7 1
     7     6     8 1
     8     7     9 1
     9     9    10 1
    10     9    11 1
    11    11     8 1
    12     8    12 1
    13    12     4 1
    14     4    13 1
    15    14    13 1
    16     1    15 1
    17     2    16 1
    18     3    17 1
    19     4    18 1
    20     5    19 1
    21     6    20 1
    22     7    21 1
    23     8    22 1
    24     9    24 1
    25    10    25 1
    26    10    26 1
    27    10    27 1
    28    13    28 1
    29    13    29 1
    30    14    23 1
@<TRIPOS>SUBSTRUCTURE
     1 NGW         1 TEMP              0 ****  ****    0 ROOT
