@<TRIPOS>MOLECULE
NGZ
   31    31     1     0     0
SMALL
bcc


@<TRIPOS>ATOM
      1 C1         -0.1000   -0.1080   -0.1610 c3        1 NGZ      0.331900
      2 C2          1.4100    0.2200    0.0050 c3        1 NGZ      0.097500
      3 C3          1.7480    0.3300    1.5090 c3        1 NGZ      0.126100
      4 C4          1.3260   -0.9800    2.1990 c3        1 NGZ      0.105100
      5 C5         -0.1800   -1.1920    1.9920 c3        1 NGZ      0.061100
      6 C6         -0.6410   -2.5560    2.5290 c3        1 NGZ      0.131400
      7 C7          2.0470    1.3090   -2.1860 c         1 NGZ      0.558100
      8 C8          3.1440    2.1490   -2.7440 c3        1 NGZ     -0.191100
      9 N2          1.7910    1.4880   -0.7030 n4        1 NGZ     -0.676800
     10 O3          3.1410    0.5610    1.5930 oh        1 NGZ     -0.633800
     11 O4          1.6470   -0.7810    3.5610 oh        1 NGZ     -0.603800
     12 O5         -0.4970   -1.2190    0.5950 os        1 NGZ     -0.411600
     13 O6         -0.4120   -2.6210    3.9180 oh        1 NGZ     -0.594800
     14 O7          1.3380    0.5050   -2.7700 o         1 NGZ     -0.408100
     15 O1         -0.8190    1.0140    0.2920 oh        1 NGZ     -0.656800
     16 H1         -0.3490   -0.3770   -1.2300 h2        1 NGZ      0.120700
     17 H2          2.0060   -0.6240   -0.4540 hx        1 NGZ      0.132700
     18 H3          1.1930    1.1920    1.9800 h1        1 NGZ      0.088700
     19 H4          1.9060   -1.8500    1.7820 h1        1 NGZ      0.072700
     20 H5         -0.7490   -0.3560    2.4860 h1        1 NGZ      0.074700
     21 H61        -1.7200   -2.7180    2.2720 h1        1 NGZ      0.078200
     22 H62        -0.0210   -3.3820    2.0860 h1        1 NGZ      0.078200
     23 H81         3.1620    2.0170   -3.8600 hc        1 NGZ      0.117367
     24 H82         4.1330    1.8230   -2.3300 hc        1 NGZ      0.117367
     25 H83         2.9870    3.2330   -2.5130 hc        1 NGZ      0.117367
     26 HN2         2.6420    1.8570   -0.2530 hn        1 NGZ      0.478300
     27 HO3         3.4160    0.3520    2.5010 ho        1 NGZ      0.470000
     28 HB          1.4200   -1.5950    4.0390 ho        1 NGZ      0.459000
     29 HO6        -1.1240   -2.1420    4.3620 ho        1 NGZ      0.421000
     30 HO1        -1.7600    0.7850    0.3050 ho        1 NGZ      0.463000
     31 H22         1.0260    2.1670   -0.5720 hn        1 NGZ      0.478300
@<TRIPOS>BOND
     1    1    2 1
     2    1   12 1
     3    1   15 1
     4    1   16 1
     5    2    3 1
     6    2    9 1
     7    2   17 1
     8    3    4 1
     9    3   10 1
    10    3   18 1
    11    4    5 1
    12    4   11 1
    13    4   19 1
    14    5    6 1
    15    5   12 1
    16    5   20 1
    17    6   13 1
    18    6   21 1
    19    6   22 1
    20    7    8 1
    21    7    9 1
    22    7   14 2
    23    8   23 1
    24    8   24 1
    25    8   25 1
    26    9   26 1
    27    9   31 1
    28   10   27 1
    29   11   28 1
    30   13   29 1
    31   15   30 1
@<TRIPOS>SUBSTRUCTURE
     1 NGZ         1 TEMP              0 ****  ****    0 ROOT
