@<TRIPOS>MOLECULE
NH
    2     1     1     0     0
SMALL
bcc


@<TRIPOS>ATOM
      1 N           0.0070    0.0010    0.0010 n1        1 NH      -0.082000
      2 H           0.9940   -0.0010   -0.0010 hn        1 NH       0.082000
@<TRIPOS>BOND
     1    1    2 1
@<TRIPOS>SUBSTRUCTURE
     1 NH          1 TEMP              0 ****  ****    0 ROOT
