@<TRIPOS>MOLECULE
NH1
   72    75     1     0     0
SMALL
bcc


@<TRIPOS>ATOM
      1 O4           0.0000     0.0000     0.0000 oh         1 NH1      -0.500100
      2 C23          1.3590     0.0000     0.0000 ca         1 NH1       0.123100
      3 C20          2.0550     0.0000     1.1990 ca         1 NH1      -0.135000
      4 C17          3.4360     0.0010     1.1960 ca         1 NH1      -0.078000
      5 C29          4.1260     0.0000    -0.0010 ca         1 NH1      -0.110300
      6 C14          3.4340     0.0060    -1.2000 ca         1 NH1      -0.078000
      7 C25          2.0530     0.0010    -1.2020 ca         1 NH1      -0.135000
      8 C8           5.6320     0.0000    -0.0020 c3         1 NH1       0.024900
      9 C7           6.1430    -1.4400    -0.0040 c3         1 NH1      -0.047400
     10 C3           7.6720    -1.4410    -0.0040 c3         1 NH1       0.181800
     11 O2           8.1490    -0.7670     1.1620 os         1 NH1      -0.384900
     12 C1           9.4820    -0.9870     1.2120 c          1 NH1       0.804800
     13 O1          10.0010    -1.4030     2.2300 o          1 NH1      -0.579500
     14 C6          10.2940    -0.7090     0.0240 ce         1 NH1      -0.193600
     15 S1          12.0450    -0.5540     0.1530 ss         1 NH1      -0.239500
     16 C21         12.1520     0.9290     1.0950 ca         1 NH1       0.073900
     17 C24         11.0030     1.6570     1.3790 ca         1 NH1      -0.115000
     18 C12         11.0890     2.8210     2.1170 ca         1 NH1      -0.090300
     19 C2          12.3220     3.2660     2.5720 ca         1 NH1       0.029600
     20 N1          12.4070     4.4460     3.3210 nv         1 NH1      -0.561200
     21 C15         13.4700     2.5360     2.2930 ca         1 NH1      -0.112000
     22 C18         13.3870     1.3730     1.5540 ca         1 NH1      -0.049300
     23 C26         14.6330     0.5840     1.2480 c3         1 NH1      -0.011700
     24 C10         15.8460     1.2840     1.8650 c3         1 NH1      -0.014433
     25 C27         14.5030    -0.8230     1.8350 c3         1 NH1      -0.014433
     26 C9          14.8160     0.4890    -0.2680 c3         1 NH1      -0.014433
     27 C11          9.8420     3.6110     2.4240 c3         1 NH1       0.069200
     28 C5           9.6810    -0.5770    -1.1730 c2         1 NH1       0.203900
     29 O3          10.4030    -0.3210    -2.2850 oh         1 NH1      -0.438100
     30 C4           8.1810    -0.7200    -1.2540 c3         1 NH1      -0.074200
     31 C22          8.1830    -2.8830    -0.0050 c3         1 NH1      -0.108700
     32 C13          7.6460    -3.6550     1.2270 c3         1 NH1      -0.032400
     33 C28          7.7010    -5.1360     0.7980 c3         1 NH1      -0.022400
     34 C16          7.6600    -5.1500    -0.7410 c3         1 NH1      -0.022400
     35 C19          7.5830    -3.6770    -1.1920 c3         1 NH1      -0.032400
     36 H37         -0.3140     0.8890    -0.0120 ho         1 NH1       0.403000
     37 H35          1.5150     0.0000     2.1380 ha         1 NH1       0.114500
     38 H34          3.9790    -0.0020     2.1330 ha         1 NH1       0.106500
     39 H33          3.9770     0.0070    -2.1380 ha         1 NH1       0.106500
     40 H36          1.5110     0.0060    -2.1400 ha         1 NH1       0.114500
     41 H6           5.9930     0.5130    -0.8860 hc         1 NH1       0.026200
     42 H7           5.9940     0.5100     0.8830 hc         1 NH1       0.026200
     43 H4           5.7810    -1.9520     0.8790 hc         1 NH1       0.045200
     44 H5           5.7820    -1.9500    -0.8900 hc         1 NH1       0.045200
     45 H9          10.0400     1.3100     1.0240 ha         1 NH1       0.119000
     46 H13         12.5470     5.3230     2.8580 hn         1 NH1       0.272300
     47 H14         12.3310     4.4120     4.3180 hn         1 NH1       0.272300
     48 H8          14.4330     2.8830     2.6500 ha         1 NH1       0.126000
     49 H15         15.7160     1.3520     2.9380 hc         1 NH1       0.015589
     50 H16         15.9390     2.2790     1.4480 hc         1 NH1       0.015589
     51 H17         16.7410     0.7150     1.6450 hc         1 NH1       0.015589
     52 H18         13.9710    -1.4580     1.1370 hc         1 NH1       0.015589
     53 H19         13.9570    -0.7760     2.7700 hc         1 NH1       0.015589
     54 H20         15.4900    -1.2320     2.0140 hc         1 NH1       0.015589
     55 H21         14.3080    -0.3930    -0.6380 hc         1 NH1       0.015589
     56 H22         15.8720     0.4230    -0.5010 hc         1 NH1       0.015589
     57 H23         14.3970     1.3710    -0.7380 hc         1 NH1       0.015589
     58 H10          9.0200     3.2350     1.8270 hc         1 NH1       0.006700
     59 H11         10.0100     4.6550     2.1910 hc         1 NH1       0.006700
     60 H12          9.6010     3.5090     3.4750 hc         1 NH1       0.006700
     61 H3           9.9010     0.2270    -2.8670 ho         1 NH1       0.404000
     62 H1           7.7290     0.2630    -1.3130 hc         1 NH1       0.053700
     63 H2           7.9210    -1.2960    -2.1340 hc         1 NH1       0.053700
     64 H32          9.2650    -2.9140    -0.0330 hc         1 NH1       0.064700
     65 H24          8.2860    -3.4870     2.0850 hc         1 NH1       0.027700
     66 H25          6.6260    -3.3610     1.4420 hc         1 NH1       0.027700
     67 H26          8.6200    -5.5890     1.1480 hc         1 NH1       0.015200
     68 H27          6.8440    -5.6670     1.1950 hc         1 NH1       0.015200
     69 H28          6.7850    -5.6880    -1.0830 hc         1 NH1       0.015200
     70 H29          8.5610    -5.6090    -1.1300 hc         1 NH1       0.015200
     71 H30          6.5530    -3.3870    -1.3590 hc         1 NH1       0.027700
     72 H31          8.1760    -3.5250    -2.0860 hc         1 NH1       0.027700
@<TRIPOS>BOND
     1     1     2 1   
     2     1    36 1   
     3     2     3 ar  
     4     2     7 ar  
     5     3     4 ar  
     6     3    37 1   
     7     4     5 ar  
     8     4    38 1   
     9     5     6 ar  
    10     5     8 1   
    11     6     7 ar  
    12     6    39 1   
    13     7    40 1   
    14     8     9 1   
    15     8    41 1   
    16     8    42 1   
    17     9    10 1   
    18     9    43 1   
    19     9    44 1   
    20    10    11 1   
    21    10    30 1   
    22    10    31 1   
    23    11    12 1   
    24    12    13 2   
    25    12    14 1   
    26    14    15 1   
    27    14    28 2   
    28    15    16 1   
    29    16    17 ar  
    30    16    22 ar  
    31    17    18 ar  
    32    17    45 1   
    33    18    19 ar  
    34    18    27 1   
    35    19    20 1   
    36    19    21 ar  
    37    20    46 1   
    38    20    47 1   
    39    21    22 ar  
    40    21    48 1   
    41    22    23 1   
    42    23    24 1   
    43    23    25 1   
    44    23    26 1   
    45    24    49 1   
    46    24    50 1   
    47    24    51 1   
    48    25    52 1   
    49    25    53 1   
    50    25    54 1   
    51    26    55 1   
    52    26    56 1   
    53    26    57 1   
    54    27    58 1   
    55    27    59 1   
    56    27    60 1   
    57    28    29 1   
    58    28    30 1   
    59    29    61 1   
    60    30    62 1   
    61    30    63 1   
    62    31    32 1   
    63    31    35 1   
    64    31    64 1   
    65    32    33 1   
    66    32    65 1   
    67    32    66 1   
    68    33    34 1   
    69    33    67 1   
    70    33    68 1   
    71    34    35 1   
    72    34    69 1   
    73    34    70 1   
    74    35    71 1   
    75    35    72 1   
@<TRIPOS>SUBSTRUCTURE
     1 NH1         1 TEMP              0 ****  ****    0 ROOT
