@<TRIPOS>MOLECULE
NH4
    5     4     1     0     0
SMALL
bcc


@<TRIPOS>ATOM
      1 N            0.0000     0.0000     0.0000 n+         1 NH4       0.171800
      2 HN1          1.0010     0.0000     0.0000 hn         1 NH4       0.206800
      3 HN2         -0.3340     0.0000     0.9440 hn         1 NH4       0.206800
      4 HN3         -0.3340     0.8170    -0.4720 hn         1 NH4       0.206800
      5 HN4         -0.3340    -0.8170    -0.4720 hn         1 NH4       0.206800
@<TRIPOS>BOND
     1     1     2 1   
     2     1     3 1   
     3     1     4 1   
     4     1     5 1   
@<TRIPOS>SUBSTRUCTURE
     1 NH4         1 TEMP              0 ****  ****    0 ROOT
