@<TRIPOS>MOLECULE
molecule
   77    80     1     0     0
SMALL
bcc


@<TRIPOS>ATOM
      1 C1           0.0000     0.0000     0.0000 ca         1 NH5      -0.118000
      2 C2           1.3830     0.0000     0.0000 ca         1 NH5      -0.111000
      3 C3           2.0750     0.0000     1.1970 ca         1 NH5       0.027400
      4 C4           1.3820     0.0010     2.3970 ca         1 NH5       0.032400
      5 C5          -0.0010     0.0010     2.3950 ca         1 NH5      -0.110000
      6 C6          -0.6910     0.0060     1.1970 ca         1 NH5      -0.074300
      7 C7          -2.1980     0.0060     1.1950 c3         1 NH5      -0.038100
      8 C8          -2.7080     1.4480     1.2010 c3         1 NH5       0.162800
      9 N9          -4.1780     1.4480     1.2000 n7         1 NH5      -0.829200
     10 C10         -4.7030     2.8190     1.2050 c3         1 NH5       0.169800
     11 C11         -6.2330     2.7780     1.2040 c3         1 NH5      -0.160400
     12 C12         -6.7730     4.1850     1.2090 c          1 NH5       0.665100
     13 O13         -6.0140     5.1270     1.1200 o          1 NH5      -0.612100
     14 N14         -8.1000     4.3970     1.3140 n          1 NH5      -0.488800
     15 C15         -9.0070     3.2670     1.5330 c3         1 NH5       0.099000
     16 C16         -9.1840     3.0410     3.0360 c3         1 NH5       0.132800
     17 N17        -10.0940     1.9080     3.2560 n7         1 NH5      -0.821200
     18 C18        -10.2880     1.6610     4.6910 c3         1 NH5       0.162800
     19 C19        -11.2380     0.4770     4.8800 c3         1 NH5      -0.027100
     20 C20        -11.4380     0.2220     6.3520 ca         1 NH5      -0.087300
     21 C21        -10.6640    -0.7210     7.0020 ca         1 NH5      -0.107000
     22 C22        -10.8400    -0.9590     8.3520 ca         1 NH5      -0.168000
     23 C23        -11.7970    -0.2520     9.0640 ca         1 NH5       0.094100
     24 C24        -12.5780     0.6970     8.4140 ca         1 NH5      -0.011400
     25 C25        -12.3920     0.9370     7.0560 ca         1 NH5       0.106100
     26 O26        -13.1590     1.8710     6.4310 os         1 NH5      -0.314900
     27 C27        -14.4950     2.0340     6.9140 c3         1 NH5       0.069400
     28 C28        -14.4840     2.1100     8.4200 c          1 NH5       0.665500
     29 O29        -15.3140     2.7750     9.0030 o          1 NH5      -0.612500
     30 N30        -13.5530     1.4260     9.1150 ns         1 NH5      -0.451100
     31 O31        -11.9720    -0.4860    10.3920 oh         1 NH5      -0.514100
     32 C32         -8.6350     5.7570     1.2080 c3         1 NH5       0.126700
     33 C33         -8.0750     6.6150     2.3430 c3         1 NH5      -0.100900
     34 C34         -8.6340     8.0350     2.2320 c3         1 NH5      -0.076900
     35 C35         -8.2260     8.6400     0.8870 c3         1 NH5      -0.081400
     36 C36         -8.7880     7.7810    -0.2480 c3         1 NH5      -0.076900
     37 C37         -8.2290     6.3620    -0.1380 c3         1 NH5      -0.100900
     38 Cl38         2.2480     0.0010     3.9000 cl         1 NH5      -0.085400
     39 Cl39         3.8110     0.0000     1.1980 cl         1 NH5      -0.087400
     40 H1          -0.5410     0.0020    -0.9380 ha         1 NH5       0.140000
     41 H2           1.9240    -0.0030    -0.9380 ha         1 NH5       0.150000
     42 H5          -0.5440     0.0040     3.3330 ha         1 NH5       0.153000
     43 H7          -2.5600    -0.5090     2.0770 hc         1 NH5       0.057700
     44 H7A         -2.5580    -0.5020     0.3080 hc         1 NH5       0.057700
     45 H8          -2.3460     1.9620     0.3180 h1         1 NH5       0.040200
     46 H8A         -2.3470     1.9550     2.0870 h1         1 NH5       0.040200
     47 HN9         -4.5110     0.9660     0.3890 hn         1 NH5       0.347800
     48 H10         -4.3550     3.3420     0.3230 h1         1 NH5       0.051200
     49 H10A        -4.3570     3.3350     2.0920 h1         1 NH5       0.051200
     50 H11         -6.5820     2.2540     2.0860 hc         1 NH5       0.065200
     51 H11A        -6.5800     2.2620     0.3170 hc         1 NH5       0.065200
     52 H15         -8.5910     2.3760     1.0800 h1         1 NH5       0.057200
     53 H15A        -9.9700     3.4840     1.0850 h1         1 NH5       0.057200
     54 H16         -8.2220     2.8240     3.4840 h1         1 NH5       0.042200
     55 H16A        -9.6010     3.9320     3.4890 h1         1 NH5       0.042200
     56 HN17        -9.7160     1.0880     2.8240 hn         1 NH5       0.347800
     57 H18         -9.3340     1.4350     5.1510 h1         1 NH5       0.042200
     58 H18A       -10.7130     2.5430     5.1550 h1         1 NH5       0.042200
     59 H19        -10.8130    -0.4050     4.4150 hc         1 NH5       0.058700
     60 H19A       -12.1930     0.7030     4.4200 hc         1 NH5       0.058700
     61 H21         -9.9150    -1.2760     6.4500 ha         1 NH5       0.142000
     62 H22        -10.2300    -1.7000     8.8550 ha         1 NH5       0.144000
     63 H27        -15.0950     1.1880     6.6020 h1         1 NH5       0.087700
     64 H27A       -14.9130     2.9480     6.5110 h1         1 NH5       0.087700
     65 HN30       -13.6530     1.3060    10.1030 hn         1 NH5       0.353500
     66 HO31       -12.2160    -1.3880    10.5230 ho         1 NH5       0.424000
     67 H32         -9.7160     5.7310     1.2780 h1         1 NH5       0.057700
     68 H33         -8.3660     6.1870     3.2950 hc         1 NH5       0.059700
     69 H33A        -6.9940     6.6470     2.2700 hc         1 NH5       0.059700
     70 H34         -8.2340     8.6430     3.0350 hc         1 NH5       0.039950
     71 H34A        -9.7140     8.0030     2.3000 hc         1 NH5       0.039950
     72 H35         -8.6240     9.6440     0.8090 hc         1 NH5       0.044200
     73 H35A        -7.1460     8.6670     0.8170 hc         1 NH5       0.044200
     74 H36         -8.4980     8.2090    -1.2000 hc         1 NH5       0.039950
     75 H36A        -9.8680     7.7490    -0.1750 hc         1 NH5       0.039950
     76 H37         -7.1480     6.3940    -0.2070 hc         1 NH5       0.059700
     77 H37A        -8.6290     5.7540    -0.9410 hc         1 NH5       0.059700
@<TRIPOS>BOND
     1     6     1 ar
     2     1     2 ar
     3     1    40 1
     4     3     2 ar
     5     2    41 1
     6     4     3 ar
     7     3    39 1
     8    38     4 1
     9     5     4 ar
    10     5     6 ar
    11     5    42 1
    12     7     6 1
    13     8     7 1
    14     7    43 1
    15     7    44 1
    16     8     9 1
    17     8    45 1
    18     8    46 1
    19     9    10 1
    20     9    47 1
    21    11    10 1
    22    10    48 1
    23    10    49 1
    24    12    11 1
    25    11    50 1
    26    11    51 1
    27    14    12 1
    28    12    13 2
    29    15    14 1
    30    32    14 1
    31    15    16 1
    32    15    52 1
    33    15    53 1
    34    16    17 1
    35    16    54 1
    36    16    55 1
    37    17    18 1
    38    17    56 1
    39    18    19 1
    40    18    57 1
    41    18    58 1
    42    19    20 1
    43    19    59 1
    44    19    60 1
    45    20    21 ar
    46    20    25 ar
    47    21    22 ar
    48    21    61 1
    49    22    23 ar
    50    22    62 1
    51    24    23 ar
    52    23    31 1
    53    25    24 ar
    54    24    30 1
    55    26    25 1
    56    26    27 1
    57    27    28 1
    58    27    63 1
    59    27    64 1
    60    28    30 1
    61    28    29 2
    62    30    65 1
    63    31    66 1
    64    33    32 1
    65    32    37 1
    66    32    67 1
    67    34    33 1
    68    33    68 1
    69    33    69 1
    70    34    35 1
    71    34    70 1
    72    34    71 1
    73    35    36 1
    74    35    72 1
    75    35    73 1
    76    36    37 1
    77    36    74 1
    78    36    75 1
    79    37    76 1
    80    37    77 1
@<TRIPOS>SUBSTRUCTURE
     1 NH5         1 TEMP              0 ****  ****    0 ROOT
