@<TRIPOS>MOLECULE
molecule
   61    64     1     0     0
SMALL
bcc


@<TRIPOS>ATOM
      1 CBC          0.0000     0.0000     0.0000 ca         1 NH6      -0.116500
      2 CBD          1.3820     0.0000     0.0000 ca         1 NH6      -0.123000
      3 CBE          2.0740     0.0000     1.1980 ca         1 NH6       0.031400
      4 Cl           3.8090    -0.0000     1.1990 cl         1 NH6      -0.106400
      5 CBF          1.3810     0.0000     2.3960 ca         1 NH6      -0.123000
      6 CBG         -0.0010     0.0000     2.3950 ca         1 NH6      -0.116500
      7 CAW         -0.6910     0.0060     1.1970 ca         1 NH6      -0.115300
      8 CAV         -2.1980     0.0070     1.1970 c3         1 NH6       0.274100
      9 NAU         -2.6860     1.3720     1.4130 n3         1 NH6      -0.804500
     10 CAX         -2.9320     2.2510     0.2680 c3         1 NH6       0.236500
     11 CAY         -3.8520     1.5460    -0.7510 c3         1 NH6      -0.103900
     12 CAZ         -3.3060     1.9950    -2.1300 c3         1 NH6      -0.085400
     13 CBA         -1.7740     2.0110    -1.9020 c3         1 NH6      -0.085400
     14 CBB         -1.6110     2.5450    -0.4640 c3         1 NH6      -0.103900
     15 SAR         -2.9590     1.9200     2.9520 sy         1 NH6       1.417200
     16 OAS         -4.0420     2.8360     2.8650 o          1 NH6      -0.630300
     17 OAT         -2.9770     0.7710     3.7890 o          1 NH6      -0.630300
     18 CAO         -1.5470     2.8610     3.4270 ca         1 NH6      -0.262500
     19 CAP         -0.5520     2.2770     4.1890 ca         1 NH6      -0.053500
     20 CAQ          0.5580     3.0140     4.5580 ca         1 NH6      -0.051000
     21 CAN         -1.4330     4.1820     3.0350 ca         1 NH6      -0.053500
     22 CAM         -0.3250     4.9200     3.4070 ca         1 NH6      -0.051000
     23 CAL          0.6730     4.3340     4.1650 ca         1 NH6      -0.264500
     24 SAI          2.0870     5.2740     4.6370 sy         1 NH6       1.417200
     25 OAJ          1.6940     6.6390     4.5950 o          1 NH6      -0.629800
     26 OAK          2.6120     4.6520     5.8010 o          1 NH6      -0.629800
     27 NAH          3.2240     5.0780     3.4480 n7         1 NH6      -0.911100
     28 CAA          2.9660     5.5880     2.0980 c3         1 NH6       0.282100
     29 CAB          4.2570     5.6220     1.3200 ca         1 NH6      -0.111300
     30 CAC          5.0530     6.7510     1.3510 ca         1 NH6      -0.111000
     31 CAD          6.2360     6.7820     0.6370 ca         1 NH6      -0.129500
     32 CAE          6.6240     5.6840    -0.1070 ca         1 NH6      -0.118000
     33 CAF          5.8280     4.5540    -0.1360 ca         1 NH6      -0.129500
     34 CAG          4.6470     4.5200     0.5820 ca         1 NH6      -0.111000
     35 H1          -0.5420     0.0020    -0.9380 ha         1 NH6       0.148500
     36 H2           1.9240    -0.0050    -0.9380 ha         1 NH6       0.146000
     37 H3           1.9220    -0.0020     3.3350 ha         1 NH6       0.146000
     38 H4          -0.5430     0.0030     3.3330 ha         1 NH6       0.148500
     39 H5          -2.5590    -0.3590     0.2430 h1         1 NH6       0.077200
     40 H6          -2.5600    -0.6360     1.9900 h1         1 NH6       0.077200
     41 H7          -3.3860     3.1780     0.5960 h1         1 NH6       0.081700
     42 H8          -3.7780     0.4710    -0.6470 hc         1 NH6       0.056700
     43 H9          -4.8770     1.8760    -0.6260 hc         1 NH6       0.056700
     44 H10         -3.6660     2.9850    -2.3800 hc         1 NH6       0.047950
     45 H11         -3.5700     1.2770    -2.8970 hc         1 NH6       0.047950
     46 H12         -1.3700     1.0090    -1.9800 hc         1 NH6       0.047950
     47 H13         -1.2940     2.6760    -2.6090 hc         1 NH6       0.047950
     48 H14         -0.7930     2.0350     0.0290 hc         1 NH6       0.056700
     49 H15         -1.4310     3.6130    -0.4860 hc         1 NH6       0.056700
     50 H16         -0.6420     1.2420     4.4970 ha         1 NH6       0.154500
     51 H17          1.3380     2.5560     5.1530 ha         1 NH6       0.156500
     52 H18         -2.2150     4.6400     2.4410 ha         1 NH6       0.154500
     53 H19         -0.2350     5.9550     3.1000 ha         1 NH6       0.156500
     54 H20          4.0990     4.6410     3.6590 hn         1 NH6       0.463800
     55 H21          2.5560     6.5880     2.1620 h1         1 NH6       0.051700
     56 H22          2.2590     4.9390     1.5960 h1         1 NH6       0.051700
     57 H23          4.7490     7.6120     1.9340 ha         1 NH6       0.136500
     58 H24          6.8600     7.6680     0.6610 ha         1 NH6       0.133500
     59 H25          7.5510     5.7090    -0.6680 ha         1 NH6       0.132000
     60 H26          6.1330     3.6920    -0.7170 ha         1 NH6       0.133500
     61 H27          4.0240     3.6350     0.5580 ha         1 NH6       0.136500
@<TRIPOS>BOND
     1    31    30 ar
     2    31    32 ar
     3    30    29 ar
     4    32    33 ar
     5    25    24 2
     6    29    28 1
     7    29    34 ar
     8    12    13 1
     9    12    11 1
    10    33    34 ar
    11    24    26 2
    12    24    27 1
    13    24    23 1
    14    28    27 1
    15    13    14 1
    16    11    10 1
    17    20    23 ar
    18    20    19 ar
    19    23    22 ar
    20    10    14 1
    21    10     9 1
    22    19    18 ar
    23    22    21 ar
    24     8     9 1
    25     8     7 1
    26    18    21 ar
    27    18    15 1
    28     9    15 1
    29     6     7 ar
    30     6     5 ar
    31     7     1 ar
    32    15    17 2
    33    15    16 2
    34     5     3 ar
    35     1     2 ar
    36     3     2 ar
    37     3     4 1
    38     1    35 1
    39     2    36 1
    40     5    37 1
    41     6    38 1
    42     8    39 1
    43     8    40 1
    44    10    41 1
    45    11    42 1
    46    11    43 1
    47    12    44 1
    48    12    45 1
    49    13    46 1
    50    13    47 1
    51    14    48 1
    52    14    49 1
    53    19    50 1
    54    20    51 1
    55    21    52 1
    56    22    53 1
    57    27    54 1
    58    28    55 1
    59    28    56 1
    60    30    57 1
    61    31    58 1
    62    32    59 1
    63    33    60 1
    64    34    61 1
@<TRIPOS>SUBSTRUCTURE
     1 NH6         1 TEMP              0 ****  ****    0 ROOT
