@<TRIPOS>MOLECULE
NH7
   67    72     1     0     0
SMALL
bcc


@<TRIPOS>ATOM
      1 C2          0.1260    0.1560   -0.3090 cc        1 NH7      0.412400
      2 C7          3.2130    0.0110    1.7090 c3        1 NH7      0.372600
      3 C10         3.2340   -0.5310    3.1150 cc        1 NH7      0.050900
      4 C11         4.0100   -1.5080    3.6960 cd        1 NH7     -0.165200
      5 C12         3.6340   -1.5630    5.0960 ca        1 NH7     -0.092800
      6 C13         4.0440   -2.3190    6.1820 ca        1 NH7     -0.065000
      7 C14         3.4210   -2.0770    7.4160 ca        1 NH7     -0.205600
      8 C15         2.3960   -1.1190    7.5610 ca        1 NH7     -0.056000
      9 C16         1.9580   -0.3380    6.4840 cp        1 NH7      0.022000
     10 C21         3.7970    1.4090    1.7090 ca        1 NH7     -0.112300
     11 C22         5.0350    1.6750    1.1160 ca        1 NH7     -0.096000
     12 C24         4.8270    4.0010    1.7290 ca        1 NH7      0.030400
     13 C31         0.8950    0.6450    6.6480 cp        1 NH7     -0.079000
     14 C32        -0.1710    0.3930    7.5270 ca        1 NH7     -0.101500
     15 C33        -1.1830    1.3360    7.6890 ca        1 NH7     -0.125500
     16 C34        -1.1430    2.5370    6.9810 ca        1 NH7     -0.096000
     17 C35        -0.0900    2.7910    6.1020 ca        1 NH7     -0.125500
     18 N1          1.5140    0.2800   -0.1930 na        1 NH7     -0.174900
     19 N3         -0.4470   -0.1900    0.8680 nd        1 NH7     -0.661000
     20 C4          0.5930   -0.2950    1.7780 cd        1 NH7      0.334200
     21 C5          1.8270   -0.0090    1.1480 cc        1 NH7     -0.300900
     22 C6          2.4110    0.6400   -1.2420 c3        1 NH7      0.007600
     23 O8          4.0790   -0.8170    0.9270 oh        1 NH7     -0.590800
     24 O9          2.3610    0.0630    4.0540 os        1 NH7     -0.164200
     25 C17         2.6060   -0.5740    5.2640 ca        1 NH7      0.115100
     26 C23         5.5520    2.9690    1.1250 ca        1 NH7     -0.130000
     27 C25         3.5870    3.7420    2.3230 ca        1 NH7     -0.130000
     28 C26         3.0770    2.4470    2.3130 ca        1 NH7     -0.096000
     29 CL27        5.4540    5.5770    1.7420 cl        1 NH7     -0.071400
     30 C36         0.9230    1.8500    5.9310 ca        1 NH7     -0.101500
     31 C41         3.7770   -2.8350    8.6100 c         1 NH7      0.619700
     32 O42         3.0830   -3.3420    9.4720 o         1 NH7     -0.414100
     33 N43         5.3120   -3.0150    8.8250 n4        1 NH7     -0.472600
     34 N44         5.7900   -2.1690    9.8660 n3        1 NH7     -0.485400
     35 C45         7.2210   -1.8120    9.7070 c3        1 NH7      0.077300
     36 C46         7.6750   -0.8760   10.8420 c3        1 NH7      0.130900
     37 O47         7.4360   -1.4690   12.1070 os        1 NH7     -0.385600
     38 C48         6.0590   -1.7560   12.3020 c3        1 NH7      0.130900
     39 C49         5.5480   -2.7230   11.2210 c3        1 NH7      0.077300
     40 H2         -0.4040    0.3240   -1.2540 h5        1 NH7      0.073100
     41 H11         4.7660   -2.1190    3.2070 ha        1 NH7      0.187000
     42 H13         4.8020   -3.1040    6.0470 ha        1 NH7      0.136000
     43 H15         1.9270   -0.9780    8.5500 ha        1 NH7      0.168000
     44 H22         5.6040    0.8620    0.6370 ha        1 NH7      0.154500
     45 H32        -0.2200   -0.5590    8.0770 ha        1 NH7      0.137000
     46 H33        -2.0190    1.1280    8.3750 ha        1 NH7      0.147000
     47 H34        -1.9450    3.2810    7.1110 ha        1 NH7      0.149000
     48 H35        -0.0600    3.7360    5.5370 ha        1 NH7      0.147000
     49 H4          0.4180   -0.5580    2.8210 h4        1 NH7      0.047100
     50 H6          2.1310    1.6480   -1.6540 h1        1 NH7      0.067033
     51 H6A         3.4630    0.6810   -0.8460 h1        1 NH7      0.067033
     52 H6B         2.3550   -0.1190   -2.0680 h1        1 NH7      0.067033
     53 HO8         3.5960   -1.6310    0.7300 ho        1 NH7      0.426000
     54 H23         6.5270    3.1740    0.6550 ha        1 NH7      0.156000
     55 H25         3.0140    4.5570    2.7920 ha        1 NH7      0.156000
     56 H26         2.1010    2.2330    2.7790 ha        1 NH7      0.154500
     57 H36         1.7450    2.0490    5.2250 ha        1 NH7      0.137000
     58 HN43        5.4990   -4.0120    9.0150 hn        1 NH7      0.440800
     59 H45         7.3530   -1.2630    8.7320 h1        1 NH7      0.078200
     60 H45A        7.8840   -2.7250    9.7110 h1        1 NH7      0.078200
     61 H46         8.7890   -0.7430   10.7900 h1        1 NH7      0.087200
     62 H46A        7.1570    0.1170   10.7690 h1        1 NH7      0.087200
     63 H48         5.4580   -0.8100   12.3090 h1        1 NH7      0.087200
     64 H48A        6.0090   -2.2610   13.3050 h1        1 NH7      0.087200
     65 H49         4.4380   -2.8600   11.3610 h1        1 NH7      0.078200
     66 H49A        6.0600   -3.7190   11.3600 h1        1 NH7      0.078200
     67 H432        5.7880   -2.7450    7.9510 hn        1 NH7      0.440800
@<TRIPOS>BOND
     1    1   18 1   
     2    1   19 2   
     3    1   40 1   
     4    2    3 1   
     5    2   10 1   
     6    2   21 1   
     7    2   23 1   
     8    3    4 2   
     9    3   24 1   
    10    4    5 1   
    11    4   41 1   
    12    5    6 ar  
    13    5   25 ar  
    14    6    7 ar  
    15    6   42 1   
    16    7    8 ar  
    17    7   31 1   
    18    8    9 ar  
    19    8   43 1   
    20    9   13 1   
    21    9   25 ar  
    22   10   11 ar  
    23   10   28 ar  
    24   11   26 ar  
    25   11   44 1   
    26   12   26 ar  
    27   12   27 ar  
    28   12   29 1   
    29   13   14 ar  
    30   13   30 ar  
    31   14   15 ar  
    32   14   45 1   
    33   15   16 ar  
    34   15   46 1   
    35   16   17 ar  
    36   16   47 1   
    37   17   30 ar  
    38   17   48 1   
    39   18   21 1   
    40   18   22 1   
    41   19   20 1   
    42   20   21 2   
    43   20   49 1   
    44   22   50 1   
    45   22   51 1   
    46   22   52 1   
    47   23   53 1   
    48   24   25 1   
    49   26   54 1   
    50   27   28 ar  
    51   27   55 1   
    52   28   56 1   
    53   30   57 1   
    54   31   32 2   
    55   31   33 1   
    56   33   34 1   
    57   33   58 1   
    58   33   67 1   
    59   34   35 1   
    60   34   39 1   
    61   35   36 1   
    62   35   59 1   
    63   35   60 1   
    64   36   37 1   
    65   36   61 1   
    66   36   62 1   
    67   37   38 1   
    68   38   39 1   
    69   38   63 1   
    70   38   64 1   
    71   39   65 1   
    72   39   66 1   
@<TRIPOS>SUBSTRUCTURE
     1 NH7         1 TEMP              0 ****  ****    0 ROOT
