@<TRIPOS>MOLECULE
NH8
   53    57     1     0     0
SMALL
bcc


@<TRIPOS>ATOM
      1 C2          0.0820   -0.0090   -0.1170 cc        1 NH8      0.401400
      2 C7          3.2250   -0.0320    1.8280 c3        1 NH8      0.370600
      3 C10         3.9960   -1.2520    1.3970 cc        1 NH8     -0.001100
      4 C11         5.3210   -1.4380    1.0800 cd        1 NH8     -0.150200
      5 C12         5.4760   -2.8400    0.7350 ca        1 NH8     -0.118800
      6 C13         6.5510   -3.6260    0.3410 ca        1 NH8     -0.014000
      7 C14         6.2920   -4.9830    0.0920 ca        1 NH8     -0.193200
      8 C15         5.0060   -5.5470    0.2230 ca        1 NH8     -0.053000
      9 C16         3.9070   -4.7710    0.6100 cp        1 NH8     -0.023000
     10 C21         3.1990    0.0560    3.3430 ca        1 NH8     -0.105300
     11 C22         3.0810   -1.0970    4.1250 ca        1 NH8     -0.114500
     12 C24         3.1570    0.2490    6.1330 ca        1 NH8     -0.001000
     13 C27         3.1430    0.3460    7.5510 cg        1 NH8      0.225800
     14 C31         2.5740   -5.3520    0.7250 cp        1 NH8     -0.050000
     15 C32         1.6800   -4.8980    1.7060 ca        1 NH8     -0.081000
     16 C33         0.4100   -5.4580    1.8170 ca        1 NH8     -0.130000
     17 C34         0.0090   -6.4750    0.9530 ca        1 NH8     -0.079000
     18 C35         0.8950   -6.9300   -0.0350 ca        1 NH8     -0.015000
     19 N1          1.4760    0.0950   -0.0610 na        1 NH8     -0.170900
     20 N3         -0.4550   -0.2140    1.1090 nd        1 NH8     -0.668000
     21 C4          0.6160   -0.2410    1.9910 cd        1 NH8      0.331200
     22 C5          1.8300   -0.0530    1.2890 cc        1 NH8     -0.233900
     23 C6          2.3500    0.3330   -1.1630 c3        1 NH8      0.017600
     24 O8          3.8750    1.1140    1.2690 oh        1 NH8     -0.582800
     25 O9          3.2620   -2.4530    1.2800 os        1 NH8     -0.173200
     26 C17         4.1760   -3.4210    0.8700 ca        1 NH8      0.099100
     27 C23         3.0620   -1.0060    5.5150 ca        1 NH8     -0.093000
     28 C25         3.2630    1.4080    5.3520 ca        1 NH8     -0.093000
     29 C26         3.2820    1.3090    3.9620 ca        1 NH8     -0.114500
     30 N28         3.1320    0.4250    8.7120 n1        1 NH8     -0.346800
     31 C36         2.1740   -6.3710   -0.1500 ca        1 NH8     -0.078000
     32 C37         0.4930   -7.9610   -0.9270 cg        1 NH8      0.228800
     33 N38         0.1620   -8.8050   -1.6570 n1        1 NH8     -0.351800
     34 N41         7.4180   -5.8610   -0.3260 no        1 NH8      0.316200
     35 O42         8.5170   -5.3850   -0.4270 o         1 NH8     -0.204500
     36 O43         7.1990   -7.0200   -0.5520 o         1 NH8     -0.204500
     37 H2         -0.4780    0.0710   -1.0540 h5        1 NH8      0.065100
     38 H11         6.1170   -0.6970    1.0750 ha        1 NH8      0.175000
     39 H13         7.5640   -3.2050    0.2300 ha        1 NH8      0.181000
     40 H15         4.8650   -6.6250    0.0210 ha        1 NH8      0.181000
     41 H22         2.9970   -2.0840    3.6410 ha        1 NH8      0.154000
     42 H32         1.9830   -4.0850    2.3870 ha        1 NH8      0.147000
     43 H33        -0.2840   -5.0920    2.5890 ha        1 NH8      0.148000
     44 H34        -0.9950   -6.9160    1.0400 ha        1 NH8      0.151000
     45 H4          0.4800   -0.3880    3.0620 h4        1 NH8      0.046100
     46 H6          2.9300   -0.6000   -1.4010 h1        1 NH8      0.061700
     47 H6A         3.0740    1.1550   -0.9070 h1        1 NH8      0.061700
     48 H6B         1.7470    0.6310   -2.0610 h1        1 NH8      0.061700
     49 HO8         4.7350    1.1930    1.7020 ho        1 NH8      0.414000
     50 H23         2.9710   -1.9170    6.1260 ha        1 NH8      0.152500
     51 H25         3.3280    2.3960    5.8340 ha        1 NH8      0.152500
     52 H26         3.3470    2.2210    3.3480 ha        1 NH8      0.154000
     53 H36         2.8570   -6.7280   -0.9360 ha        1 NH8      0.150000
@<TRIPOS>BOND
     1    1   19 1   
     2    1   20 2   
     3    1   37 1   
     4    2    3 1   
     5    2   10 1   
     6    2   22 1   
     7    2   24 1   
     8    3    4 2   
     9    3   25 1   
    10    4    5 1   
    11    4   38 1   
    12    5    6 ar  
    13    5   26 ar  
    14    6    7 ar  
    15    6   39 1   
    16    7    8 ar  
    17    7   34 1   
    18    8    9 ar  
    19    8   40 1   
    20    9   14 1   
    21    9   26 ar  
    22   10   11 ar  
    23   10   29 ar  
    24   11   27 ar  
    25   11   41 1   
    26   12   13 1   
    27   12   27 ar  
    28   12   28 ar  
    29   13   30 3   
    30   14   15 ar  
    31   14   31 ar  
    32   15   16 ar  
    33   15   42 1   
    34   16   17 ar  
    35   16   43 1   
    36   17   18 ar  
    37   17   44 1   
    38   18   31 ar  
    39   18   32 1   
    40   19   22 1   
    41   19   23 1   
    42   20   21 1   
    43   21   22 2   
    44   21   45 1   
    45   23   46 1   
    46   23   47 1   
    47   23   48 1   
    48   24   49 1   
    49   25   26 1   
    50   27   50 1   
    51   28   29 ar  
    52   28   51 1   
    53   29   52 1   
    54   31   53 1   
    55   32   33 3   
    56   34   35 1   
    57   34   36 1   
@<TRIPOS>SUBSTRUCTURE
     1 NH8         1 TEMP              0 ****  ****    0 ROOT
