@<TRIPOS>MOLECULE
molecule
   41    43     1     0     0
SMALL
bcc


@<TRIPOS>ATOM
      1 C7           0.0000     0.0000     0.0000 ca         1 NHB      -0.232300
      2 C8           1.3830     0.0000     0.0000 ca         1 NHB      -0.088000
      3 C9           2.0470     0.0000     1.2200 ca         1 NHB      -0.245300
      4 C10          1.3130     0.0010     2.3920 ca         1 NHB       0.427200
      5 N11         -0.0040     0.0080     2.3660 nb         1 NHB      -0.677000
      6 C6          -0.6780     0.0010     1.2210 ca         1 NHB       0.503800
      7 C4          -2.1540     0.0030     1.2380 cc         1 NHB      -0.023600
      8 S5          -3.2960     0.0010    -0.1330 ss         1 NHB      -0.067800
      9 C3          -3.0040     0.0040     2.3130 cd         1 NHB      -0.177000
     10 C2          -4.3610     0.0090     2.0820 cd         1 NHB      -0.038000
     11 C1          -4.8160     0.0030     0.8030 cc         1 NHB      -0.252600
     12 S12         -6.4770     0.0030     0.2170 sy         1 NHB       1.454200
     13 O13         -7.2610    -0.5210     1.2810 o          1 NHB      -0.614800
     14 O14         -6.4220    -0.5230    -1.1010 o          1 NHB      -0.614800
     15 N15         -6.9430     1.5820     0.0520 nh         1 NHB      -0.669900
     16 C16         -6.7280     2.2810    -1.2180 c3         1 NHB       0.223100
     17 C17         -7.5390     2.2470     1.1170 ca         1 NHB       0.190600
     18 C18         -8.4610     3.2620     0.8760 ca         1 NHB      -0.168500
     19 C19         -9.0520     3.9220     1.9290 ca         1 NHB      -0.056500
     20 C22         -7.2160     1.8940     2.4240 ca         1 NHB      -0.168500
     21 C21         -7.8010     2.5530     3.4800 ca         1 NHB      -0.056500
     22 C20         -8.7270     3.5720     3.2420 ca         1 NHB      -0.165600
     23 C23         -9.3580     4.2770     4.3730 c          1 NHB       0.690700
     24 O25        -10.1630     5.1640     4.1630 o          1 NHB      -0.578100
     25 N24         -9.0430     3.9400     5.6380 ns         1 NHB      -0.470400
     26 O26         -9.6500     4.6170     6.7240 oh         1 NHB      -0.360100
     27 H7          -0.5490    -0.0030    -0.9340 ha         1 NHB       0.145000
     28 H8           1.9360    -0.0010    -0.9310 ha         1 NHB       0.144000
     29 H9           3.1300    -0.0030     1.2530 ha         1 NHB       0.143000
     30 H10          1.8280     0.0040     3.3450 h4         1 NHB       0.029100
     31 H3          -2.6160     0.0080     3.3240 ha         1 NHB       0.168000
     32 H2          -5.0580     0.0110     2.9120 ha         1 NHB       0.155000
     33 H161        -6.4860     3.3180    -1.0240 h1         1 NHB       0.052033
     34 H162        -7.6290     2.2260    -1.8180 h1         1 NHB       0.052033
     35 H163        -5.9100     1.8130    -1.7530 h1         1 NHB       0.052033
     36 H18         -8.7130     3.5330    -0.1430 ha         1 NHB       0.143500
     37 H19         -9.7700     4.7110     1.7400 ha         1 NHB       0.144000
     38 H22         -6.4980     1.1040     2.6100 ha         1 NHB       0.143500
     39 H21         -7.5470     2.2780     4.4970 ha         1 NHB       0.144000
     40 H24         -8.3800     3.2110     5.8110 hn         1 NHB       0.320500
     41 H26         -9.3360     4.2540     7.5360 ho         1 NHB       0.398000
@<TRIPOS>BOND
     1     1     2 ar
     2     1     6 ar
     3     1    27 1
     4     2     3 ar
     5     2    28 1
     6     3     4 ar
     7     3    29 1
     8     4     5 ar
     9     4    30 1
    10     5     6 ar
    11     6     7 1
    12     7     8 1
    13     7     9 2
    14     8    11 1
    15     9    10 1
    16     9    31 1
    17    10    11 2
    18    10    32 1
    19    11    12 1
    20    12    13 2
    21    12    14 2
    22    12    15 1
    23    15    16 1
    24    15    17 1
    25    16    33 1
    26    16    34 1
    27    16    35 1
    28    17    18 ar
    29    17    20 ar
    30    18    19 ar
    31    18    36 1
    32    19    22 ar
    33    19    37 1
    34    20    21 ar
    35    20    38 1
    36    21    22 ar
    37    21    39 1
    38    22    23 1
    39    23    24 2
    40    23    25 1
    41    25    26 1
    42    25    40 1
    43    26    41 1
@<TRIPOS>SUBSTRUCTURE
     1 NHB         1 TEMP              0 ****  ****    0 ROOT
