@<TRIPOS>MOLECULE
NHC
   27    28     1     0     0
SMALL
bcc


@<TRIPOS>ATOM
      1 O2         -0.1160   -0.2840    0.0780 o         1 NHC     -0.854800
      2 C8          1.1460   -0.2530   -0.0300 c         1 NHC      0.942600
      3 O4          1.7370   -0.5710   -1.1010 o         1 NHC     -0.854800
      4 C3          2.0060   -0.0260    1.2630 c3        1 NHC     -0.144000
      5 C7          2.9900   -1.1830    1.2410 c3        1 NHC     -0.060100
      6 C4          2.6970    1.3640    1.5010 c3        1 NHC     -0.144000
      7 C10         4.2030    1.2590    1.6600 c3        1 NHC     -0.060100
      8 C9          2.5180    2.5090    0.4430 c         1 NHC      0.942600
      9 O3          3.2730    2.5180   -0.5710 o         1 NHC     -0.854800
     10 O5          1.7530    3.4790    0.7230 o         1 NHC     -0.854800
     11 C2          1.0360   -0.0990    2.4870 c3        1 NHC      0.131100
     12 C1          1.8160   -0.3510    3.8090 c3        1 NHC     -0.112400
     13 C5          2.4930    1.0120    4.0430 c3        1 NHC     -0.112400
     14 C6          1.9950    1.8310    2.8170 c3        1 NHC      0.131100
     15 O1          0.6530    1.2900    2.6770 os        1 NHC     -0.397600
     16 H7          3.6700   -1.2210    2.1250 hc        1 NHC      0.010700
     17 H7A         2.4260   -2.1480    1.2030 hc        1 NHC      0.010700
     18 H7B         3.6100   -1.1000    0.3140 hc        1 NHC      0.010700
     19 H10         4.6140    2.2560    1.9580 hc        1 NHC      0.010700
     20 H10A        4.5310    0.5140    2.4220 hc        1 NHC      0.010700
     21 H10B        4.6430    0.9780    0.6700 hc        1 NHC      0.010700
     22 H2          0.1230   -0.7020    2.3220 h1        1 NHC      0.095700
     23 H1          1.1030   -0.5870    4.6350 hc        1 NHC      0.012200
     24 H1A         2.5450   -1.1850    3.7340 hc        1 NHC      0.012200
     25 H5          2.1290    1.4790    4.9890 hc        1 NHC      0.012200
     26 H5A         3.6000    0.9380    4.0980 hc        1 NHC      0.012200
     27 H6          1.9270    2.9290    2.9440 h1        1 NHC      0.095700
@<TRIPOS>BOND
     1    1    2 1   
     2    2    3 1   
     3    2    4 1   
     4    4    5 1   
     5    4    6 1   
     6    4   11 1   
     7    5   16 1   
     8    5   17 1   
     9    5   18 1   
    10    6    7 1   
    11    6    8 1   
    12    6   14 1   
    13    7   19 1   
    14    7   20 1   
    15    7   21 1   
    16    8    9 1   
    17    8   10 1   
    18   11   12 1   
    19   11   15 1   
    20   11   22 1   
    21   12   13 1   
    22   12   23 1   
    23   12   24 1   
    24   13   14 1   
    25   13   25 1   
    26   13   26 1   
    27   14   15 1   
    28   14   27 1   
@<TRIPOS>SUBSTRUCTURE
     1 NHC         1 TEMP              0 ****  ****    0 ROOT
