@<TRIPOS>MOLECULE
molecule
   27    28     1     0     0
SMALL
bcc


@<TRIPOS>ATOM
      1 O2           0.0000     0.0000     0.0000 o          1 NHC      -0.849050
      2 C8           1.2080     0.0000     0.0000 c          1 NHC       0.932600
      3 O4           1.8790     0.0050    -1.1630 o          1 NHC      -0.849050
      4 C3           1.9620     0.0000     1.3040 c3         1 NHC      -0.149000
      5 C7           2.9670    -1.1530     1.3480 c3         1 NHC      -0.070100
      6 C4           2.6750     1.3590     1.5260 c3         1 NHC      -0.149000
      7 C10          4.1780     1.1550     1.7300 c3         1 NHC      -0.070100
      8 C9           2.4160     2.2920     0.3720 c          1 NHC       0.932600
      9 O3           3.3230     2.6170    -0.3570 o          1 NHC      -0.849050
     10 O5           1.1780     2.7630     0.1540 o          1 NHC      -0.849050
     11 C2           0.9780    -0.0790     2.5100 c3         1 NHC       0.147100
     12 C1           1.8730    -0.3580     3.7550 c3         1 NHC      -0.129400
     13 C5           2.5830     1.0030     3.9790 c3         1 NHC      -0.129400
     14 C6           2.0080     1.8890     2.8310 c3         1 NHC       0.147100
     15 O1           0.6500     1.3360     2.7050 os         1 NHC      -0.382600
     16 H7           3.4590    -1.2400     0.3870 hc         1 NHC       0.013367
     17 H7A          2.4480    -2.0770     1.5730 hc         1 NHC       0.013367
     18 H7B          3.7060    -0.9590     2.1160 hc         1 NHC       0.013367
     19 H10          4.6400     2.1020     1.9800 hc         1 NHC       0.013367
     20 H10A         4.6170     0.7690     0.8170 hc         1 NHC       0.013367
     21 H10B         4.3410     0.4490     2.5350 hc         1 NHC       0.013367
     22 H2           0.1290    -0.7390     2.3830 h1         1 NHC       0.082700
     23 H1           2.5950    -1.1370     3.5410 hc         1 NHC       0.017950
     24 H1A          1.2660    -0.6200     4.6130 hc         1 NHC       0.017950
     25 H5           2.3240     1.4150     4.9470 hc         1 NHC       0.017950
     26 H5A          3.6560     0.8960     3.8810 hc         1 NHC       0.017950
     27 H6           2.0630     2.9600     2.9880 h1         1 NHC       0.082700
@<TRIPOS>BOND
     1     1     2 1
     2     2     3 1
     3     2     4 1
     4     4     5 1
     5     4     6 1
     6     4    11 1
     7     6     7 1
     8     6     8 1
     9     6    14 1
    10     8     9 1
    11     8    10 1
    12    11    12 1
    13    11    15 1
    14    12    13 1
    15    13    14 1
    16    14    15 1
    17     5    16 1
    18     5    17 1
    19     5    18 1
    20     7    19 1
    21     7    20 1
    22     7    21 1
    23    11    22 1
    24    12    23 1
    25    12    24 1
    26    13    25 1
    27    13    26 1
    28    14    27 1
@<TRIPOS>SUBSTRUCTURE
     1 NHC         1 TEMP              0 ****  ****    0 ROOT
