@<TRIPOS>MOLECULE
NHE
   29    29     1     0     0
SMALL
bcc


@<TRIPOS>ATOM
      1 C3'          0.0000     0.0000     0.0000 c3         1 NHE      -0.022900
      2 C2'          1.5290     0.0000     0.0000 c3         1 NHE      -0.027400
      3 C1'          2.0400     0.0000     1.4430 c3         1 NHE       0.110500
      4 C6'          1.5280    -1.2470     2.1650 c3         1 NHE      -0.027400
      5 N            3.5090    -0.0010     1.4430 n7         1 NHE      -0.589200
      6 C1           3.9300     0.7040     2.6610 c3         1 NHE       0.162800
      7 C2           5.4580     0.7390     2.7240 c3         1 NHE      -0.055600
      8 S            5.9810     1.6090     4.2270 s6         1 NHE       0.948800
      9 O1           5.7040     0.8490     5.3950 o          1 NHE      -0.658867
     10 O2           5.7060     3.0000     4.1500 o          1 NHE      -0.658867
     11 O3           7.5000     1.5610     4.1470 o          1 NHE      -0.658867
     12 C5'         -0.0020    -1.2450     2.1650 c3         1 NHE      -0.022900
     13 C4'         -0.5110    -1.2470     0.7210 c3         1 NHE      -0.024400
     14 H3'1        -0.3600    -0.0030    -1.0220 hc         1 NHE       0.007700
     15 H3'2        -0.3600     0.8840     0.5120 hc         1 NHE       0.007700
     16 H2'1         1.8890    -0.8860    -0.5090 hc         1 NHE       0.020200
     17 H2'2         1.8890     0.8860    -0.5090 hc         1 NHE       0.020200
     18 HC'1         1.6750     0.8840     1.9520 h1         1 NHE       0.017700
     19 H6'1         1.8870    -1.2430     3.1870 hc         1 NHE       0.020200
     20 H6'2         1.8870    -2.1320     1.6540 hc         1 NHE       0.020200
     21 HN           3.8430     0.4930     0.6390 hn         1 NHE       0.252800
     22 HC11         3.5440     0.1860     3.5300 h1         1 NHE       0.011700
     23 HC12         3.5460     1.7170     2.6430 h1         1 NHE       0.011700
     24 HC21         5.8420    -0.2740     2.7410 h1         1 NHE       0.053700
     25 HC22         5.8440     1.2570     1.8550 h1         1 NHE       0.053700
     26 H5'1        -0.3610    -0.3580     2.6720 hc         1 NHE       0.007700
     27 H5'2        -0.3620    -2.1300     2.6740 hc         1 NHE       0.007700
     28 H4'1        -1.5940    -1.2430     0.7220 hc         1 NHE       0.006200
     29 H4'2        -0.1480    -2.1310     0.2120 hc         1 NHE       0.006200
@<TRIPOS>BOND
     1     1     2 1   
     2     1    13 1   
     3     1    14 1   
     4     1    15 1   
     5     2     3 1   
     6     2    16 1   
     7     2    17 1   
     8     3     4 1   
     9     3     5 1   
    10     3    18 1   
    11     4    12 1   
    12     4    19 1   
    13     4    20 1   
    14     5     6 1   
    15     5    21 1   
    16     6     7 1   
    17     6    22 1   
    18     6    23 1   
    19     7     8 1   
    20     7    24 1   
    21     7    25 1   
    22     8     9 1   
    23     8    10 1   
    24     8    11 1   
    25    12    13 1   
    26    12    26 1   
    27    12    27 1   
    28    13    28 1   
    29    13    29 1   
@<TRIPOS>SUBSTRUCTURE
     1 NHE         1 TEMP              0 ****  ****    0 ROOT
