@<TRIPOS>MOLECULE
molecule
   28    30     1     0     0
SMALL
bcc


@<TRIPOS>ATOM
      1 CW2          0.0000     0.0000     0.0000 ca         1 NHG      -0.113000
      2 CW3          1.3830     0.0000     0.0000 ca         1 NHG      -0.123300
      3 CW7          2.3710     0.0000     1.1430 c3         1 NHG      -0.040700
      4 CK2          2.1980    -1.2140     2.0580 c3         1 NHG      -0.076100
      5 CW9          2.2630     1.3340     1.9150 c3         1 NHG      -0.067400
      6 CK1          3.7440     1.7490     2.0980 c3         1 NHG       0.141800
      7 NW2          4.3730     1.3390     0.8170 n7         1 NHG      -0.778200
      8 CW8          3.7560     0.0290     0.4580 c3         1 NHG       0.392700
      9 NW1          3.4670     0.0040    -0.9790 nu         1 NHG      -0.662600
     10 CW4          2.0850    -0.0010    -1.1930 ca         1 NHG       0.100600
     11 CW5          1.3790    -0.0060    -2.3990 ca         1 NHG      -0.131000
     12 CW6          0.0010    -0.0070    -2.3980 ca         1 NHG      -0.127000
     13 CW1         -0.6960    -0.0030    -1.1990 ca         1 NHG       0.076100
     14 OW1         -2.0560    -0.0030    -1.1990 oh         1 NHG      -0.520100
     15 HW2         -0.5410     0.0040     0.9390 ha         1 NHG       0.138000
     16 HK21         1.2340    -1.1620     2.5480 hc         1 NHG       0.040700
     17 HK22         2.9830    -1.2180     2.8050 hc         1 NHG       0.040700
     18 HK23         2.2560    -2.1210     1.4690 hc         1 NHG       0.040700
     19 HW91         1.7870     1.1810     2.8770 hc         1 NHG       0.059700
     20 HW92         1.7290     2.0720     1.3290 hc         1 NHG       0.059700
     21 HW8          4.3730    -0.8070     0.7620 h2         1 NHG       0.044700
     22 HK11         4.1890     1.2150     2.9290 h1         1 NHG       0.041200
     23 HK12         3.8240     2.8200     2.2360 h1         1 NHG       0.041200
     24 HA           5.3570     1.2180     0.9520 hn         1 NHG       0.349800
     25 HW1          3.8700    -0.8170    -1.3860 hn         1 NHG       0.373800
     26 HW5          1.9180    -0.0100    -3.3390 ha         1 NHG       0.139000
     27 HW6         -0.5400    -0.0100    -3.3370 ha         1 NHG       0.142000
     28 HB          -2.3700     0.8860    -1.1760 ho         1 NHG       0.415000
@<TRIPOS>BOND
     1     1     2 ar
     2     1    13 ar
     3     2     3 1
     4     2    10 ar
     5     3     4 1
     6     3     5 1
     7     3     8 1
     8     5     6 1
     9     6     7 1
    10     7     8 1
    11     8     9 1
    12     9    10 1
    13    10    11 ar
    14    11    12 ar
    15    12    13 ar
    16    13    14 1
    17     1    15 1
    18     4    16 1
    19     4    17 1
    20     4    18 1
    21     5    19 1
    22     5    20 1
    23     8    21 1
    24     6    22 1
    25     6    23 1
    26     7    24 1
    27     9    25 1
    28    11    26 1
    29    12    27 1
    30    14    28 1
@<TRIPOS>SUBSTRUCTURE
     1 NHG         1 TEMP              0 ****  ****    0 ROOT
