@<TRIPOS>MOLECULE
NHH
   36    36     1     0     0
SMALL
bcc


@<TRIPOS>ATOM
      1 N7           0.0000     0.0000     0.0000 nz         1 NHH       0.201150
      2 C8           1.3720     0.0000     0.0000 c2         1 NHH      -0.055900
      3 N8           2.0570     0.0000     1.1890 nz         1 NHH       0.201150
      4 N6           2.0310    -0.0010    -1.1390 ne         1 NHH      -0.087700
      5 N5           3.4320    -0.0020    -1.1380 ne         1 NHH      -0.513700
      6 C4           4.0790    -0.0020    -2.2580 c2         1 NHH       0.629300
      7 C5           5.5910    -0.0020    -2.2720 c3         1 NHH      -0.099450
      8 C6           6.0720    -1.1980    -3.1030 c3         1 NHH      -0.099450
      9 C3           3.3370    -0.0090    -3.5740 c3         1 NHH      -0.099450
     10 C2           3.8190    -1.1980    -4.4060 c3         1 NHH      -0.099450
     11 C1           5.3300    -1.1990    -4.4210 c2         1 NHH       0.629300
     12 N1           5.9770    -1.2000    -5.5410 ne         1 NHH      -0.513700
     13 N2           5.2780    -1.2010    -6.7550 ne         1 NHH      -0.087700
     14 C7           5.9370    -1.2010    -7.8930 c2         1 NHH      -0.055900
     15 N3           7.3080    -1.2010    -7.8920 nz         1 NHH       0.201150
     16 N4           5.2520    -1.2020    -9.0820 nz         1 NHH       0.201150
     17 HN71        -0.3340     0.8130     0.4790 hn         1 NHH       0.251050
     18 HN72        -0.3340     0.0080    -0.9430 hn         1 NHH       0.251050
     19 HN81         2.6310     0.8180     1.2440 hn         1 NHH       0.251050
     20 HN82         1.4060    -0.0010     1.9490 hn         1 NHH       0.251050
     21 H51          5.9500     0.9180    -2.7190 hc         1 NHH       0.079700
     22 H52          5.9640    -0.0900    -1.2590 hc         1 NHH       0.079700
     23 H61          7.1360    -1.1090    -3.2860 hc         1 NHH       0.079700
     24 H62          5.8650    -2.1180    -2.5690 hc         1 NHH       0.079700
     25 H31          3.5400     0.9120    -4.1080 hc         1 NHH       0.079700
     26 H32          2.2740    -0.1030    -3.3910 hc         1 NHH       0.079700
     27 H21          3.4460    -1.1070    -5.4190 hc         1 NHH       0.079700
     28 H22          3.4600    -2.1190    -3.9630 hc         1 NHH       0.079700
     29 HN31         7.6420    -2.0190    -7.4210 hn         1 NHH       0.251050
     30 HN32         7.6420    -0.3840    -7.4200 hn         1 NHH       0.251050
     31 HN41         4.2680    -1.2080    -8.9010 hn         1 NHH       0.251050
     32 HN42         5.4900    -0.3830    -9.6050 hn         1 NHH       0.251050
     33 H73         -0.3340    -0.8270     0.4550 hn         1 NHH       0.251050
     34 H83          2.6630    -0.7960     1.2260 hn         1 NHH       0.251050
     35 H33          7.6430    -1.1910    -8.8360 hn         1 NHH       0.251050
     36 H43          5.5020    -2.0150    -9.6110 hn         1 NHH       0.251050
@<TRIPOS>BOND
     1     1     2 1   
     2     1    17 1   
     3     1    18 1   
     4     1    33 1   
     5     2     3 1   
     6     2     4 2   
     7     3    19 1   
     8     3    20 1   
     9     3    34 1   
    10     4     5 1   
    11     5     6 2   
    12     6     7 1   
    13     6     9 1   
    14     7     8 1   
    15     7    21 1   
    16     7    22 1   
    17     8    11 1   
    18     8    23 1   
    19     8    24 1   
    20     9    10 1   
    21     9    25 1   
    22     9    26 1   
    23    10    11 1   
    24    10    27 1   
    25    10    28 1   
    26    11    12 2   
    27    12    13 1   
    28    13    14 2   
    29    14    15 1   
    30    14    16 1   
    31    15    29 1   
    32    15    30 1   
    33    15    35 1   
    34    16    31 1   
    35    16    32 1   
    36    16    36 1   
@<TRIPOS>SUBSTRUCTURE
     1 NHH         1 TEMP              0 ****  ****    0 ROOT
