@<TRIPOS>MOLECULE
molecule
   36    36     1     0     0
SMALL
bcc


@<TRIPOS>ATOM
      1 N7           0.0000     0.0000     0.0000 nz         1 NHH      -0.754100
      2 C8           1.3720     0.0000     0.0000 c2         1 NHH       0.470100
      3 N8           2.0570     0.0000     1.1890 nz         1 NHH      -0.754100
      4 N6           2.0310    -0.0010    -1.1390 ne         1 NHH      -0.258700
      5 N5           3.4320    -0.0020    -1.1380 ne         1 NHH      -0.500700
      6 C4           4.0790    -0.0020    -2.2580 c2         1 NHH       0.594800
      7 C5           5.5910    -0.0020    -2.2720 c3         1 NHH      -0.159700
      8 C6           6.0720    -1.1980    -3.1030 c3         1 NHH      -0.159700
      9 C3           3.3370    -0.0090    -3.5740 c3         1 NHH      -0.159700
     10 C2           3.8190    -1.1980    -4.4060 c3         1 NHH      -0.159700
     11 C1           5.3300    -1.1990    -4.4210 c2         1 NHH       0.594800
     12 N1           5.9770    -1.2000    -5.5410 ne         1 NHH      -0.500700
     13 N2           5.2780    -1.2010    -6.7550 ne         1 NHH      -0.258700
     14 C7           5.9370    -1.2010    -7.8930 c2         1 NHH       0.470100
     15 N3           7.3080    -1.2010    -7.8920 nz         1 NHH      -0.754100
     16 N4           5.2520    -1.2020    -9.0820 nz         1 NHH      -0.754100
     17 HN71        -0.3340     0.2310    -0.9150 hn         1 NHH       0.506633
     18 HN72        -0.3340    -0.9080     0.2570 hn         1 NHH       0.506633
     19 HN81         1.4140    -0.1340     1.9450 hn         1 NHH       0.506633
     20 HN82         2.7290    -0.7420     1.1880 hn         1 NHH       0.506633
     21 H51          5.9640    -0.0900    -1.2590 hc         1 NHH       0.120700
     22 H52          5.9500     0.9180    -2.7190 hc         1 NHH       0.120700
     23 H61          5.8650    -2.1180    -2.5690 hc         1 NHH       0.120700
     24 H62          7.1360    -1.1090    -3.2860 hc         1 NHH       0.120700
     25 H31          3.5400     0.9120    -4.1080 hc         1 NHH       0.120700
     26 H32          2.2740    -0.1020    -3.3910 hc         1 NHH       0.120700
     27 H21          3.4460    -1.1070    -5.4190 hc         1 NHH       0.120700
     28 H22          3.4600    -2.1190    -3.9630 hc         1 NHH       0.120700
     29 HN31         7.6420    -2.0580    -7.4970 hn         1 NHH       0.506633
     30 HN32         7.6420    -0.4300    -7.3480 hn         1 NHH       0.506633
     31 HN41         5.1640    -0.2630    -9.4180 hn         1 NHH       0.506633
     32 HN42         4.3410    -1.5930    -8.9430 hn         1 NHH       0.506633
     33 H73         -0.3340     0.6810     0.6530 hn         1 NHH       0.506633
     34 H83          2.5520     0.8640     1.2890 hn         1 NHH       0.506633
     35 H33          7.6430    -1.1250    -8.8330 hn         1 NHH       0.506633
     36 H43          5.7500    -1.7520    -9.7540 hn         1 NHH       0.506633
@<TRIPOS>BOND
     1     1     2 1
     2     1    17 1
     3     1    18 1
     4     2     3 1
     5     2     4 2
     6     3    19 1
     7     3    20 1
     8     4     5 1
     9     5     6 2
    10     6     7 1
    11     6     9 1
    12     7     8 1
    13     7    21 1
    14     7    22 1
    15     8    11 1
    16     8    23 1
    17     8    24 1
    18     9    10 1
    19     9    25 1
    20     9    26 1
    21    10    11 1
    22    10    27 1
    23    10    28 1
    24    11    12 2
    25    12    13 1
    26    13    14 2
    27    14    15 1
    28    14    16 1
    29    15    29 1
    30    15    30 1
    31    16    31 1
    32    16    32 1
    33    33     1 1
    34    34     3 1
    35    35    15 1
    36    36    16 1
@<TRIPOS>SUBSTRUCTURE
     1 NHH         1 TEMP              0 ****  ****    0 ROOT
