@<TRIPOS>MOLECULE
NHI
   38    40     1     0     0
SMALL
bcc


@<TRIPOS>ATOM
      1 C01          0.0000     0.0000     0.0000 c          1 NHI       0.978200
      2 O01          1.2150     0.0000     0.0000 o          1 NHI      -0.892300
      3 N02         -4.4400    -1.4470    -3.9990 nb         1 NHI      -0.746000
      4 O02         -0.6730     0.0000     1.1670 o          1 NHI      -0.892300
      5 N03         -6.3010    -2.0870    -5.2150 nb         1 NHI      -0.729000
      6 C05         -8.4160    -5.2430    -4.5150 ca         1 NHI      -0.066500
      7 C06         -9.3390    -5.3550    -3.4710 ca         1 NHI      -0.116600
      8 C07         -9.1360    -4.6440    -2.2830 ca         1 NHI      -0.066500
      9 C08         -8.0300    -3.8360    -2.1470 ca         1 NHI      -0.143500
     10 C09         -7.1140    -3.7270    -3.1900 ca         1 NHI      -0.039400
     11 C10         -7.3120    -4.4340    -4.3720 ca         1 NHI      -0.143500
     12 C12         -5.5690    -2.1300    -4.1120 ca         1 NHI       0.738900
     13 C13         -4.0040    -0.6910    -5.0020 ca         1 NHI       0.569200
     14 C14         -4.7540    -0.6260    -6.1780 ca         1 NHI      -0.526600
     15 C15         -5.9250    -1.3540    -6.2530 ca         1 NHI       0.515200
     16 C16         -2.1240     0.0170    -3.6760 ca         1 NHI      -0.042400
     17 C17         -0.7320     0.0180    -3.6780 ca         1 NHI      -0.152500
     18 C18         -0.0400     0.0120    -2.4880 ca         1 NHI      -0.062000
     19 C19         -0.7370     0.0070    -1.2760 ca         1 NHI      -0.115600
     20 C20         -2.1360     0.0050    -1.2770 ca         1 NHI      -0.062000
     21 C21         -2.8210     0.0160    -2.4710 ca         1 NHI      -0.152500
     22 O25        -10.6980    -6.8380    -4.6520 o          1 NHI      -0.895300
     23 O26        -11.4110    -6.3280    -2.6120 o          1 NHI      -0.895300
     24 HN01        -5.4850    -2.9050    -2.1890 hn         1 NHI       0.289800
     25 HN04        -2.4730     0.5500    -5.6560 hn         1 NHI       0.269800
     26 H05         -8.5700    -5.7930    -5.4360 ha         1 NHI       0.120500
     27 H07         -9.8490    -4.7290    -1.4720 ha         1 NHI       0.120500
     28 H08         -7.8720    -3.2850    -1.2280 ha         1 NHI       0.100000
     29 H10         -6.5970    -4.3470    -5.1810 ha         1 NHI       0.100000
     30 H14         -4.4240    -0.0190    -7.0120 ha         1 NHI       0.113000
     31 H15         -6.5300    -1.3260    -7.1510 h4         1 NHI      -0.035900
     32 H17         -0.1930     0.0220    -4.6180 ha         1 NHI       0.101000
     33 H18          1.0430     0.0120    -2.4910 ha         1 NHI       0.122000
     34 H20         -2.6790     0.0040    -0.3400 ha         1 NHI       0.122000
     35 H21         -3.9050     0.0150    -2.4720 ha         1 NHI       0.101000
     36 N04         -2.8210     0.0220    -4.8800 nu         1 NHI      -0.295300
     37 N01         -5.9960    -2.9090    -3.0490 nu         1 NHI      -0.272300
     38 C11        -10.5230    -6.2210    -3.6210 c          1 NHI       0.979200
@<TRIPOS>BOND
     1     1     2 1   
     2     1     4 1   
     3     1    19 1   
     4     3    12 ar  
     5     3    13 ar  
     6     5    12 ar  
     7     5    15 ar  
     8     6     7 ar  
     9     6    11 ar  
    10     6    26 1   
    11     7     8 ar  
    12     7    38 1   
    13     8     9 ar  
    14     8    27 1   
    15     9    10 ar  
    16     9    28 1   
    17    10    11 ar  
    18    10    37 1   
    19    11    29 1   
    20    12    37 1   
    21    13    14 ar  
    22    13    36 1   
    23    14    15 ar  
    24    14    30 1   
    25    15    31 1   
    26    16    17 ar  
    27    16    21 ar  
    28    16    36 1   
    29    17    18 ar  
    30    17    32 1   
    31    18    19 ar  
    32    18    33 1   
    33    19    20 ar  
    34    20    21 ar  
    35    20    34 1   
    36    21    35 1   
    37    22    38 1   
    38    23    38 1   
    39    24    37 1   
    40    25    36 1   
@<TRIPOS>SUBSTRUCTURE
     1 NHI         1 TEMP              0 ****  ****    0 ROOT
