@<TRIPOS>MOLECULE
molecule
   42    44     1     0     0
SMALL
bcc


@<TRIPOS>ATOM
      1 N01          0.0000     0.0000     0.0000 nu         1 NHJ      -0.746300
      2 N02         -1.2210     0.5860    -1.9040 nb         1 NHJ      -0.834000
      3 N03          0.9280     1.3980    -1.6280 nb         1 NHJ      -0.838000
      4 N05          4.8820    -0.0160     4.1690 nz         1 NHJ      -0.677400
      5 C06          2.4110     0.0000     0.0000 ca         1 NHJ      -0.151000
      6 C07          3.6040     0.0000     0.6860 ca         1 NHJ      -0.044000
      7 C08          3.6050    -0.0080     2.0840 ca         1 NHJ      -0.257600
      8 C09          2.3930    -0.0140     2.7800 ca         1 NHJ      -0.044000
      9 C10          1.2030    -0.0140     2.0880 ca         1 NHJ      -0.151000
     10 C11          1.2060    -0.0060     0.6970 ca         1 NHJ       0.261600
     11 C12         -0.1000     0.6760    -1.2050 ca         1 NHJ       0.950900
     12 C13         -1.3480     1.2240    -3.0640 ca         1 NHJ       0.764200
     13 C14         -0.2810     1.9920    -3.5360 ca         1 NHJ      -0.458600
     14 C15          0.8690     2.0590    -2.7750 ca         1 NHJ       0.525200
     15 C16         -3.6270     0.4590    -3.2580 ca         1 NHJ       0.139600
     16 C17         -3.8580     0.4840    -1.8880 ca         1 NHJ      -0.106000
     17 C18         -4.9500    -0.1790    -1.3620 ca         1 NHJ      -0.120000
     18 C19         -5.8110    -0.8670    -2.1960 ca         1 NHJ      -0.094000
     19 C20         -5.5840    -0.8930    -3.5600 ca         1 NHJ      -0.157300
     20 C21         -4.4970    -0.2290    -4.0940 ca         1 NHJ      -0.109000
     21 C22         -6.5270    -1.6440    -4.4660 c3         1 NHJ       0.676200
     22 O24          5.9360    -0.0030     2.2140 o          1 NHJ      -0.434100
     23 F25         -7.0870    -0.7590    -5.3930 f          1 NHJ      -0.218967
     24 F26         -5.8220    -2.6450    -5.1440 f          1 NHJ      -0.218967
     25 F27         -7.5430    -2.2250    -3.7020 f          1 NHJ      -0.218967
     26 HN01        -0.7860    -0.5080     0.3550 hn         1 NHJ       0.482800
     27 HN04        -2.5920     1.5660    -4.6920 hn         1 NHJ       0.471800
     28 HN05         4.4080     0.7980     4.5070 hn         1 NHJ       0.474800
     29 HN0A         4.4070    -0.8360     4.4920 hn         1 NHJ       0.474800
     30 H06          2.4100     0.0060    -1.0830 ha         1 NHJ       0.177500
     31 H07          4.5420     0.0050     0.1430 ha         1 NHJ       0.138500
     32 H09          2.3910    -0.0200     3.8640 ha         1 NHJ       0.138500
     33 H10          0.2640    -0.0190     2.6270 ha         1 NHJ       0.177500
     34 H14         -0.3540     2.5230    -4.4770 ha         1 NHJ       0.159000
     35 H15          1.7150     2.6450    -3.1120 h4         1 NHJ       0.041100
     36 H17         -3.1840     1.0220    -1.2340 ha         1 NHJ       0.154000
     37 H18         -5.1310    -0.1600    -0.2940 ha         1 NHJ       0.141000
     38 H19         -6.6660    -1.3870    -1.7800 ha         1 NHJ       0.156000
     39 H21         -4.3200    -0.2500    -5.1620 ha         1 NHJ       0.149000
     40 N04         -2.5230     1.1290    -3.7940 nu         1 NHJ      -0.753300
     41 H053         5.8230    -0.0190     4.5090 hn         1 NHJ       0.474800
     42 C23          4.8830    -0.0090     2.8220 c          1 NHJ       0.507700
@<TRIPOS>BOND
     1    10     1 1
     2     1    11 1
     3     1    26 1
     4     2    12 ar
     5     2    11 ar
     6    11     3 ar
     7     3    14 ar
     8    15    40 1
     9    40    12 1
    10    40    27 1
    11     4    42 1
    12     4    28 1
    13     4    29 1
    14     6     5 ar
    15     5    10 ar
    16     5    30 1
    17     7     6 ar
    18     6    31 1
    19    42     7 1
    20     7     8 ar
    21     8     9 ar
    22     8    32 1
    23     9    10 ar
    24     9    33 1
    25    12    13 ar
    26    13    14 ar
    27    13    34 1
    28    14    35 1
    29    16    15 ar
    30    15    20 ar
    31    17    16 ar
    32    16    36 1
    33    17    18 ar
    34    17    37 1
    35    18    19 ar
    36    18    38 1
    37    19    21 1
    38    19    20 ar
    39    20    39 1
    40    24    21 1
    41    21    25 1
    42    21    23 1
    43    22    42 2
    44    41     4 1
@<TRIPOS>SUBSTRUCTURE
     1 NHJ         1 TEMP              0 ****  ****    0 ROOT
