@<TRIPOS>MOLECULE
NHJ
   42    44     1     0     0
SMALL
bcc


@<TRIPOS>ATOM
      1 N01          0.0000     0.0000     0.0000 nu         1 NHJ      -0.271300
      2 N02         -1.2210     0.5860    -1.9040 nb         1 NHJ      -0.724000
      3 N03          0.9280     1.3980    -1.6280 nb         1 NHJ      -0.742000
      4 N05          4.8820    -0.0160     4.1690 nz         1 NHJ       0.201600
      5 C06          2.4110     0.0000     0.0000 ca         1 NHJ      -0.133000
      6 C07          3.6040     0.0000     0.6860 ca         1 NHJ      -0.000500
      7 C08          3.6050    -0.0080     2.0840 ca         1 NHJ      -0.287600
      8 C09          2.3930    -0.0140     2.7800 ca         1 NHJ      -0.000500
      9 C10          1.2030    -0.0140     2.0880 ca         1 NHJ      -0.133000
     10 C11          1.2060    -0.0060     0.6970 ca         1 NHJ       0.104600
     11 C12         -0.1000     0.6760    -1.2050 ca         1 NHJ       0.716900
     12 C13         -1.3480     1.2240    -3.0640 ca         1 NHJ       0.563200
     13 C14         -0.2810     1.9920    -3.5360 ca         1 NHJ      -0.439600
     14 C15          0.8690     2.0590    -2.7750 ca         1 NHJ       0.527200
     15 C16         -3.6270     0.4590    -3.2580 ca         1 NHJ      -0.023400
     16 C17         -3.8580     0.4840    -1.8880 ca         1 NHJ      -0.081000
     17 C18         -4.9500    -0.1790    -1.3620 ca         1 NHJ      -0.089000
     18 C19         -5.8110    -0.8670    -2.1960 ca         1 NHJ      -0.052000
     19 C20         -5.5840    -0.8930    -3.5600 ca         1 NHJ      -0.184300
     20 C21         -4.4970    -0.2290    -4.0940 ca         1 NHJ      -0.064000
     21 C22         -6.5270    -1.6440    -4.4660 c3         1 NHJ       0.641200
     22 O24          5.9360    -0.0030     2.2140 o          1 NHJ      -0.450100
     23 F25         -7.0870    -0.7590    -5.3930 f          1 NHJ      -0.204633
     24 F26         -5.8220    -2.6450    -5.1440 f          1 NHJ      -0.204633
     25 F27         -7.5430    -2.2250    -3.7020 f          1 NHJ      -0.204633
     26 HN01        -0.7860    -0.5080     0.3550 hn         1 NHJ       0.305800
     27 HN04        -2.5920     1.5660    -4.6920 hn         1 NHJ       0.298800
     28 HN05         4.4080     0.7980     4.5070 hn         1 NHJ       0.243467
     29 HN0A         4.4070    -0.8360     4.4920 hn         1 NHJ       0.243467
     30 H06          2.4100     0.0060    -1.0830 ha         1 NHJ       0.146500
     31 H07          4.5420     0.0050     0.1430 ha         1 NHJ       0.103500
     32 H09          2.3910    -0.0200     3.8640 ha         1 NHJ       0.103500
     33 H10          0.2640    -0.0190     2.6270 ha         1 NHJ       0.146500
     34 H14         -0.3540     2.5230    -4.4770 ha         1 NHJ       0.139000
     35 H15          1.7150     2.6450    -3.1120 h4         1 NHJ      -0.010900
     36 H17         -3.1840     1.0220    -1.2340 ha         1 NHJ       0.129000
     37 H18         -5.1310    -0.1600    -0.2940 ha         1 NHJ       0.110000
     38 H19         -6.6660    -1.3870    -1.7800 ha         1 NHJ       0.127000
     39 H21         -4.3200    -0.2500    -5.1620 ha         1 NHJ       0.121000
     40 N04         -2.5230     1.1290    -3.7940 nu         1 NHJ      -0.273300
     41 H053         5.8230    -0.0190     4.5090 hn         1 NHJ       0.243467
     42 C23          4.8830    -0.0090     2.8220 c          1 NHJ       0.357700
@<TRIPOS>BOND
     1     1    10 1   
     2     1    11 1   
     3     1    26 1   
     4     2    11 ar  
     5     2    12 ar  
     6     3    11 ar  
     7     3    14 ar  
     8     4    28 1   
     9     4    29 1   
    10     4    41 1   
    11     4    42 1   
    12     5     6 ar  
    13     5    10 ar  
    14     5    30 1   
    15     6     7 ar  
    16     6    31 1   
    17     7     8 ar  
    18     7    42 1   
    19     8     9 ar  
    20     8    32 1   
    21     9    10 ar  
    22     9    33 1   
    23    12    13 ar  
    24    12    40 1   
    25    13    14 ar  
    26    13    34 1   
    27    14    35 1   
    28    15    16 ar  
    29    15    20 ar  
    30    15    40 1   
    31    16    17 ar  
    32    16    36 1   
    33    17    18 ar  
    34    17    37 1   
    35    18    19 ar  
    36    18    38 1   
    37    19    20 ar  
    38    19    21 1   
    39    20    39 1   
    40    21    23 1   
    41    21    24 1   
    42    21    25 1   
    43    22    42 2   
    44    27    40 1   
@<TRIPOS>SUBSTRUCTURE
     1 NHJ         1 TEMP              0 ****  ****    0 ROOT
