@<TRIPOS>MOLECULE
NHK
   36    36     1     0     0
SMALL
bcc


@<TRIPOS>ATOM
      1 O4           0.0000     0.0000     0.0000 o          1 NHK      -0.584800
      2 S1           1.4200     0.0000     0.0000 sy         1 NHK       1.058200
      3 O3           2.1980     0.0000     1.1890 o          1 NHK      -0.584800
      4 N2           1.8880    -1.3330    -0.8650 n3         1 NHK      -0.482500
      5 C10          3.2100    -1.9230    -0.6430 c3         1 NHK       0.170800
      6 C9           3.0990    -3.0500     0.3490 c          1 NHK       0.551100
      7 O1           2.0190    -3.3340     0.8250 o          1 NHK      -0.607100
      8 N1           4.1970    -3.7440     0.7090 ns         1 NHK      -0.059400
      9 O2           4.0910    -4.8040     1.6410 oh         1 NHK      -0.437100
     10 C8           0.9790    -1.9220    -1.8500 c3         1 NHK       0.212800
     11 C6           1.2990    -1.3620    -3.2380 c3         1 NHK       0.189400
     12 O6           2.6070    -1.7830    -3.6310 oh         1 NHK      -0.601800
     13 C3           1.9180     1.4190    -0.9190 ca         1 NHK      -0.205500
     14 C5           1.0580     1.9740    -1.8500 ca         1 NHK       0.045500
     15 C7           1.4460     3.0860    -2.5710 ca         1 NHK      -0.209500
     16 C4           2.6990     3.6460    -2.3630 ca         1 NHK       0.200100
     17 C2           3.5590     3.0870    -1.4290 ca         1 NHK      -0.209500
     18 C1           3.1640     1.9780    -0.7060 ca         1 NHK       0.045500
     19 O5           3.0820     4.7400    -3.0730 os         1 NHK      -0.305900
     20 C11          4.3840     5.2620    -2.8050 c3         1 NHK       0.245700
     21 H10          3.8830    -1.1660    -0.2560 h1         1 NHK       0.037700
     22 H10A         3.5970    -2.3040    -1.5800 h1         1 NHK       0.037700
     23 HN1          5.0900    -3.4970     0.3310 hn         1 NHK       0.150500
     24 HO2          4.9330    -5.2150     1.7470 ho         1 NHK       0.389000
     25 H8           1.1030    -2.9980    -1.8580 h1         1 NHK       0.045200
     26 H8A         -0.0440    -1.6790    -1.5890 h1         1 NHK       0.045200
     27 H6           0.5720    -1.7300    -3.9520 h1         1 NHK      -0.006300
     28 H6A          1.2610    -0.2800    -3.2090 h1         1 NHK      -0.006300
     29 HO6          2.6560    -1.8200    -4.5720 ho         1 NHK       0.391000
     30 H5           0.0800     1.5370    -2.0120 ha         1 NHK       0.119500
     31 H7           0.7730     3.5210    -3.3000 ha         1 NHK       0.123000
     32 H2           4.5360     3.5220    -1.2620 ha         1 NHK       0.123000
     33 H1           3.8350     1.5410     0.0240 ha         1 NHK       0.119500
     34 H11          4.4490     5.5530    -1.7640 h1         1 NHK       0.000033
     35 H11A         5.1280     4.5030    -3.0150 h1         1 NHK       0.000033
     36 H11B         4.5630     6.1260    -3.4340 h1         1 NHK       0.000033
@<TRIPOS>BOND
     1     1     2 2   
     2     2     3 2   
     3     2     4 1   
     4     2    13 1   
     5     4     5 1   
     6     4    10 1   
     7     5     6 1   
     8     5    21 1   
     9     5    22 1   
    10     6     7 2   
    11     6     8 1   
    12     8     9 1   
    13     8    23 1   
    14     9    24 1   
    15    10    11 1   
    16    10    25 1   
    17    10    26 1   
    18    11    12 1   
    19    11    27 1   
    20    11    28 1   
    21    12    29 1   
    22    13    14 ar  
    23    13    18 ar  
    24    14    15 ar  
    25    14    30 1   
    26    15    16 ar  
    27    15    31 1   
    28    16    17 ar  
    29    16    19 1   
    30    17    18 ar  
    31    17    32 1   
    32    18    33 1   
    33    19    20 1   
    34    20    34 1   
    35    20    35 1   
    36    20    36 1   
@<TRIPOS>SUBSTRUCTURE
     1 NHK         1 TEMP              0 ****  ****    0 ROOT
