@<TRIPOS>MOLECULE
molecule
   30    30     1     0     0
SMALL
bcc


@<TRIPOS>ATOM
      1 C1           0.0000     0.0000     0.0000 ca         1 NHP      -0.143000
      2 C2           1.3860     0.0000     0.0000 ca         1 NHP       0.040900
      3 C3           2.0790     0.0000     1.2120 ca         1 NHP       0.154600
      4 C4           1.3790     0.0110     2.4060 ca         1 NHP      -0.141000
      5 C5          -0.0040     0.0160     2.3970 ca         1 NHP      -0.162000
      6 C6          -0.6920     0.0110     1.1970 ca         1 NHP      -0.120000
      7 N1           3.4790    -0.0060     1.2190 nv         1 NHP      -0.982200
      8 S1           2.2700    -0.0120    -1.5240 ss         1 NHP      -0.278000
      9 C7           0.8820    -0.0230    -2.6930 c3         1 NHP       0.006700
     10 C8           1.4220    -0.0350    -4.1230 c3         1 NHP      -0.076400
     11 C9           0.2510    -0.0430    -5.1090 c3         1 NHP      -0.038400
     12 C10          0.7920    -0.0560    -6.5410 c3         1 NHP      -0.240600
     13 P1          -0.6020    -0.0660    -7.7150 p5         1 NHP       1.050700
     14 O1          -0.0360    -0.0790    -9.2220 o          1 NHP      -0.917500
     15 O2          -1.5010    -1.3780    -7.4700 o          1 NHP      -0.917500
     16 O3          -1.4290     1.1440    -7.5100 o          1 NHP      -0.917500
     17 H1          -0.5410    -0.0020    -0.9380 ha         1 NHP       0.158000
     18 H4           1.9140     0.0130     3.3480 ha         1 NHP       0.117000
     19 H5          -0.5510     0.0240     3.3330 ha         1 NHP       0.111000
     20 H6          -1.7750     0.0130     1.1940 ha         1 NHP       0.124000
     21 HN11         3.9760    -0.8740     1.2340 hn         1 NHP       0.421800
     22 HN12         3.9830     0.8590     1.2260 hn         1 NHP       0.421800
     23 H71          0.2770     0.8630    -2.5430 h1         1 NHP       0.061200
     24 H72          0.2780    -0.9070    -2.5270 h1         1 NHP       0.061200
     25 H81          2.0270    -0.9210    -4.2730 hc         1 NHP       0.035700
     26 H82          2.0270     0.8480    -4.2880 hc         1 NHP       0.035700
     27 H91         -0.3540     0.8420    -4.9590 hc         1 NHP       0.049200
     28 H92         -0.3540    -0.9270    -4.9440 hc         1 NHP       0.049200
     29 H101         1.3970    -0.9420    -6.6910 hc         1 NHP       0.018200
     30 H102         1.3970     0.8270    -6.7060 hc         1 NHP       0.018200
@<TRIPOS>BOND
     1     1     2 ar
     2     1     6 ar
     3     1    17 1
     4     2     3 ar
     5     2     8 1
     6     3     4 ar
     7     3     7 1
     8     4     5 ar
     9     4    18 1
    10     5     6 ar
    11     5    19 1
    12     6    20 1
    13     7    21 1
    14     7    22 1
    15     8     9 1
    16     9    10 1
    17     9    23 1
    18     9    24 1
    19    10    11 1
    20    10    25 1
    21    10    26 1
    22    11    12 1
    23    11    27 1
    24    11    28 1
    25    12    13 1
    26    12    29 1
    27    12    30 1
    28    13    14 1
    29    13    15 1
    30    13    16 1
@<TRIPOS>SUBSTRUCTURE
     1 NHP         1 TEMP              0 ****  ****    0 ROOT
