@<TRIPOS>MOLECULE
NHR
   55    57     1     0     0
SMALL
bcc


@<TRIPOS>ATOM
      1 N1          0.7250    0.2850    0.3840 nb        1 NHR     -0.794000
      2 C2          2.0140    0.5860    0.6930 ca        1 NHR      0.863900
      3 NA2         2.9700    0.5820   -0.3560 nh        1 NHR     -0.907500
      4 N3          2.5180    0.8560    1.9790 nb        1 NHR     -0.826000
      5 C4          1.6420    0.7600    2.9870 ca        1 NHR      0.730600
      6 O4          2.0170    1.0100    4.2660 oh        1 NHR     -0.615300
      7 C4A         0.2480    0.3990    2.7950 ca        1 NHR     -0.298600
      8 C8A        -0.1580    0.1870    1.4430 ca        1 NHR      0.447600
      9 C8         -1.5310   -0.1250    1.2100 ca        1 NHR     -0.223300
     10 C7         -2.4150   -0.2120    2.2620 ca        1 NHR     -0.091000
     11 C9         -2.9860   -0.1300    4.7130 c3        1 NHR     -0.020100
     12 C10        -3.5160    1.2030    5.2340 c3        1 NHR     -0.157400
     13 CA1        -4.5470    0.8870    6.3630 c         1 NHR      0.922600
     14 OA1        -5.7060    1.3670    6.2300 o         1 NHR     -0.836800
     15 C6         -2.0040   -0.0110    3.6000 ca        1 NHR     -0.094300
     16 C5         -0.6740    0.2860    3.8510 ca        1 NHR     -0.055000
     17 C16        -0.4600    2.4000    7.1240 ca        1 NHR     -0.104500
     18 C11        -0.1490    3.5750    6.4310 ca        1 NHR     -0.158600
     19 C17         1.1130    4.3260    6.6970 c         1 NHR      0.661700
     20 O17         1.1070    5.5640    6.8990 o         1 NHR     -0.664100
     21 C12        -1.0190    4.0460    5.4440 ca        1 NHR     -0.104500
     22 C13        -2.1390    3.3000    5.0870 ca        1 NHR     -0.144000
     23 C14        -2.4130    2.0780    5.7180 ca        1 NHR     -0.006300
     24 C15        -1.5930    1.6670    6.7820 ca        1 NHR     -0.144000
     25 N           2.2750    3.5850    6.7440 n         1 NHR     -0.533900
     26 CA          3.5890    4.1890    6.6940 c3        1 NHR     -0.041300
     27 C           4.6000    3.3600    5.8240 c         1 NHR      0.920600
     28 O           4.2950    2.1820    5.4750 o         1 NHR     -0.836800
     29 CB          4.2270    4.3680    8.0810 c3        1 NHR     -0.073400
     30 CG          3.6910    5.5950    8.7930 c3        1 NHR     -0.190400
     31 CD          3.8210    5.4890   10.2780 c         1 NHR      0.637100
     32 OE1         4.4580    6.2210   11.0410 o         1 NHR     -0.545000
     33 OE2         3.1530    4.4910   10.9370 oh        1 NHR     -0.606100
     34 OT          5.6840    3.9290    5.5360 o         1 NHR     -0.836800
     35 OA2        -4.1820    0.1460    7.3180 o         1 NHR     -0.836800
     36 HNA1        3.7980    1.0960   -0.1420 hn        1 NHR      0.395300
     37 HNA2        2.5850    0.8110   -1.2460 hn        1 NHR      0.395300
     38 H4O         2.9530    1.3230    4.3210 ho        1 NHR      0.511000
     39 H8         -1.8740   -0.2900    0.1780 ha        1 NHR      0.129000
     40 H7         -3.4750   -0.4420    2.0670 ha        1 NHR      0.126000
     41 H91        -2.5150   -0.6760    5.5770 hc        1 NHR      0.056700
     42 H92        -3.8670   -0.7390    4.3750 hc        1 NHR      0.056700
     43 H101       -4.0720    1.7250    4.4080 hc        1 NHR      0.047700
     44 H5         -0.3250    0.4620    4.8850 ha        1 NHR      0.167000
     45 H161        0.1950    2.0480    7.9340 ha        1 NHR      0.126000
     46 H121       -0.8000    5.0000    4.9420 ha        1 NHR      0.126000
     47 H131       -2.8070    3.6630    4.2930 ha        1 NHR      0.148500
     48 H151       -1.8790    0.7580    7.3390 ha        1 NHR      0.148500
     49 HN          2.2450    2.6450    6.3970 hn        1 NHR      0.332500
     50 HA          3.5050    5.2100    6.2180 h1        1 NHR      0.062700
     51 HB1         4.0680    3.4490    8.7020 hc        1 NHR      0.055200
     52 HB2         5.3340    4.4810    7.9240 hc        1 NHR      0.055200
     53 HG1         4.2450    6.5070    8.4450 hc        1 NHR      0.093200
     54 HG2         2.6030    5.7470    8.5410 hc        1 NHR      0.093200
     55 H2          2.6670    3.9520   10.2950 ho        1 NHR      0.438000
@<TRIPOS>BOND
     1    1    2 ar  
     2    1    8 ar  
     3    2    3 1   
     4    2    4 ar  
     5    3   36 1   
     6    3   37 1   
     7    4    5 ar  
     8    5    6 1   
     9    5    7 ar  
    10    6   38 1   
    11    7    8 ar  
    12    7   16 ar  
    13    8    9 ar  
    14    9   10 ar  
    15    9   39 1   
    16   10   15 ar  
    17   10   40 1   
    18   11   12 1   
    19   11   15 1   
    20   11   41 1   
    21   11   42 1   
    22   12   13 1   
    23   12   23 1   
    24   12   43 1   
    25   13   14 1   
    26   13   35 1   
    27   15   16 ar  
    28   16   44 1   
    29   17   18 ar  
    30   17   24 ar  
    31   17   45 1   
    32   18   19 1   
    33   18   21 ar  
    34   19   20 2   
    35   19   25 1   
    36   21   22 ar  
    37   21   46 1   
    38   22   23 ar  
    39   22   47 1   
    40   23   24 ar  
    41   24   48 1   
    42   25   26 1   
    43   25   49 1   
    44   26   27 1   
    45   26   29 1   
    46   26   50 1   
    47   27   28 1   
    48   27   34 1   
    49   29   30 1   
    50   29   51 1   
    51   29   52 1   
    52   30   31 1   
    53   30   53 1   
    54   30   54 1   
    55   31   32 2   
    56   31   33 1   
    57   33   55 1   
@<TRIPOS>SUBSTRUCTURE
     1 NHR         1 TEMP              0 ****  ****    0 ROOT
