@<TRIPOS>MOLECULE
NHS
   55    53     1     0     0
SMALL
bcc


@<TRIPOS>ATOM
      1 N1          1.9360   -0.9800    1.5870 n2        1 NHS     -0.296000
      2 C2          3.0110   -0.7320    2.3920 c2        1 NHS      0.251000
      3 NA2         4.3010   -0.8960    1.8780 nh        1 NHS     -0.324000
      4 N3          2.8750   -0.2300    3.6960 n         1 NHS     -0.320000
      5 C4          1.6050    0.0310    4.2320 c2        1 NHS      0.344000
      6 O4          1.5490    0.4830    5.3990 o         1 NHS     -0.421000
      7 C4A         0.4420   -0.2530    3.3830 c2        1 NHS     -0.224000
      8 C5         -0.8470    0.0020    3.9860 c2        1 NHS     -0.126000
      9 C6         -2.0050   -0.6040    3.6870 c2        1 NHS     -0.155000
     10 C7         -1.3480   -1.1800    0.5000 c1        1 NHS     -0.176000
     11 C8         -0.4100   -0.9760    1.2170 c1        1 NHS     -0.128000
     12 C8A         0.6800   -0.7270    2.0940 c2        1 NHS      0.186000
     13 C9         -3.2870   -0.2750    4.3560 c3        1 NHS     -0.123000
     14 C10        -4.4040   -1.2480    4.0070 c3        1 NHS     -0.097000
     15 C11        -0.3670   -3.5810    7.8450 c2        1 NHS     -0.019000
     16 C12        -0.2230   -4.8910    8.1060 c2        1 NHS     -0.157000
     17 C13        -4.2390   -1.3040    1.4700 c1        1 NHS      0.027000
     18 C14        -4.8570   -1.1020    2.5960 c2        1 NHS     -0.426000
     19 C15        -2.6590   -2.5270    7.1880 c1        1 NHS     -0.124000
     20 C16        -1.6030   -3.0060    7.4970 c1        1 NHS     -0.243000
     21 O           1.8930   -3.0730    8.4800 o         1 NHS     -0.458000
     22 N           0.7700   -1.4410    7.3660 n         1 NHS     -0.381000
     23 CA          4.8970   -4.1140    7.0950 c2        1 NHS     -0.306000
     24 CB          5.8080   -3.7720    6.1710 c2        1 NHS     -0.003000
     25 CG          6.3130   -2.3980    5.9910 c3        1 NHS     -0.213000
     26 CD          5.9890   -1.8300    4.6070 c2        1 NHS      0.334000
     27 OE1         5.6420   -0.6090    4.5340 o         1 NHS     -0.588500
     28 OE2         6.0830   -2.5500    3.5730 o         1 NHS     -0.588500
     29 CT          4.4540   -5.4930    7.2910 c2        1 NHS      0.348000
     30 O1          3.3140   -5.7240    8.0120 oh        1 NHS     -0.328000
     31 O2          5.0000   -6.5390    6.9140 o         1 NHS     -0.368000
     32 CA1        -5.5850   -1.0500    4.9960 c2        1 NHS      0.335000
     33 OA1        -6.7100   -0.6890    4.5470 o         1 NHS     -0.576500
     34 OA2        -5.3590   -1.2800    6.2200 o         1 NHS     -0.576500
     35 HN21        4.3680   -1.5480    1.1280 hn        1 NHS      0.245000
     36 HN22        5.0520   -0.9660    2.5530 hn        1 NHS      0.245000
     37 HN3         3.6910   -0.1000    4.2770 hn        1 NHS      0.301000
     38 H5         -0.8180    0.7570    4.7960 ha        1 NHS      0.130000
     39 H7         -2.0660   -1.3890    2.9130 ha        1 NHS      0.125000
     40 H8         -2.2360   -1.3510   -0.0600 ha        1 NHS      0.240000
     41 H91        -3.6010    0.7670    4.0770 hc        1 NHS      0.098000
     42 H92        -3.1550   -0.2950    5.4740 hc        1 NHS      0.098000
     43 H10        -4.0320   -2.3000    4.1590 hc        1 NHS      0.090000
     44 H12        -1.0680   -5.5890    8.0640 ha        1 NHS      0.126000
     45 H13         0.7550   -5.3230    8.3660 ha        1 NHS      0.126000
     46 H15        -5.9340   -0.7760    2.5640 ha        1 NHS      0.236000
     47 H16        -3.6030   -2.0940    6.8920 ha        1 NHS      0.293000
     48 HN         -0.0060   -1.1720    6.8090 hn        1 NHS      0.244000
     49 HA          2.8960   -4.8800    8.2510 ho        1 NHS      0.257000
     50 HB1         4.4170   -3.3640    7.7490 ha        1 NHS      0.155000
     51 HB2         6.2240   -4.5240    5.4750 ha        1 NHS      0.144000
     52 HG1         7.4320   -2.4070    6.0900 hc        1 NHS      0.091500
     53 HG2         5.9010   -1.7020    6.7670 hc        1 NHS      0.091500
     54 H2          1.5950   -0.8920    7.2790 hn        1 NHS      0.244000
     55 C           0.8390   -2.6880    7.9080 c2        1 NHS      0.342000
@<TRIPOS>BOND
     1    1    2 1   
     2    1   12 1   
     3    2    3 1   
     4    2    4 1   
     5    3   35 1   
     6    3   36 1   
     7    4    5 1   
     8    4   37 1   
     9    5    6 1   
    10    5    7 1   
    11    7    8 1   
    12    7   12 1   
    13    8    9 1   
    14    8   38 1   
    15    9   13 1   
    16    9   39 1   
    17   10   11 1   
    18   10   40 1   
    19   11   12 1   
    20   13   14 1   
    21   13   41 1   
    22   13   42 1   
    23   14   18 1   
    24   14   32 1   
    25   14   43 1   
    26   15   16 1   
    27   15   20 1   
    28   15   55 1   
    29   16   44 1   
    30   16   45 1   
    31   17   18 1   
    32   18   46 1   
    33   19   20 1   
    34   19   47 1   
    35   21   55 1   
    36   22   48 1   
    37   22   54 1   
    38   22   55 1   
    39   23   24 1   
    40   23   29 1   
    41   23   50 1   
    42   24   25 1   
    43   24   51 1   
    44   25   26 1   
    45   25   52 1   
    46   25   53 1   
    47   26   27 1   
    48   26   28 1   
    49   29   30 1   
    50   29   31 1   
    51   30   49 1   
    52   32   33 1   
    53   32   34 1   
@<TRIPOS>SUBSTRUCTURE
     1 NHS         1 TEMP              0 ****  ****    0 ROOT
