@<TRIPOS>MOLECULE
NHT
   32    33     1     0     0
SMALL
bcc


@<TRIPOS>ATOM
      1 C1           0.0000     0.0000     0.0000 c3         1 NHT       0.313200
      2 C2           1.5220     0.0000     0.0000 c3         1 NHT       0.092500
      3 C3           2.1480     0.0000     1.3860 c3         1 NHT       0.173100
      4 C4           1.3510     0.8450     2.3730 c3         1 NHT       0.141100
      5 C5          -0.0890     0.3170     2.4000 c3         1 NHT       0.156100
      6 C6          -0.9010     1.0790     3.4490 c3         1 NHT       0.228400
      7 C7           1.1840    -2.1400    -0.9710 c2         1 NHT       0.550100
      8 C10          1.0410    -5.4610    -2.6980 c3         1 NHT      -0.003100
      9 N2           2.0020    -1.1680    -0.7360 n2         1 NHT      -0.674900
     10 O3           3.4760     0.5190     1.2960 oh         1 NHT      -0.580800
     11 O4           1.9290     0.7370     3.6760 oh         1 NHT      -0.579800
     12 O5          -0.6430     0.5310     1.1200 os         1 NHT      -0.345600
     13 N1           1.4800    -3.2790    -1.6840 nu         1 NHT      -0.426200
     14 O6          -2.2210     0.5350     3.5180 oh         1 NHT      -0.582800
     15 S1          -0.3830    -1.7690    -0.2250 ss         1 NHT      -0.419300
     16 C9           0.4560    -4.3080    -1.8780 c3         1 NHT       0.151800
     17 H6          -2.6970     0.9520     4.2160 ho         1 NHT       0.389000
     18 H6C1        -0.9560     2.1260     3.1740 h1         1 NHT      -0.000300
     19 H6C2        -0.4210     0.9850     4.4160 h1         1 NHT      -0.000300
     20 H5          -0.0870    -0.7420     2.6260 h1         1 NHT       0.045700
     21 H4           1.3540     1.8790     2.0510 h1         1 NHT       0.023700
     22 H1          -0.3420     0.5390    -0.8750 h2         1 NHT       0.070700
     23 HA           2.4330     1.5120     3.8610 ho         1 NHT       0.400000
     24 H3           2.1880    -1.0190     1.7510 h1         1 NHT       0.025700
     25 HB           4.0960    -0.1730     1.4550 ho         1 NHT       0.402000
     26 H2           1.8590     0.8890    -0.5210 h1         1 NHT       0.062700
     27 H9C1         0.1310    -4.6800    -0.9140 h1         1 NHT       0.025700
     28 H9C2        -0.3890    -3.8820    -2.4050 h1         1 NHT       0.025700
     29 H8           0.2830    -6.2210    -2.8440 hc         1 NHT       0.010700
     30 H11          1.3690    -5.0880    -3.6610 hc         1 NHT       0.010700
     31 H12          1.8840    -5.8890    -2.1700 hc         1 NHT       0.010700
     32 H13          2.3930    -3.4000    -2.0770 hn         1 NHT       0.301800
@<TRIPOS>BOND
     1     1     2 1   
     2     1    12 1   
     3     1    15 1   
     4     1    22 1   
     5     2     3 1   
     6     2     9 1   
     7     2    26 1   
     8     3     4 1   
     9     3    10 1   
    10     3    24 1   
    11     4     5 1   
    12     4    11 1   
    13     4    21 1   
    14     5     6 1   
    15     5    12 1   
    16     5    20 1   
    17     6    14 1   
    18     6    18 1   
    19     6    19 1   
    20     7     9 2   
    21     7    13 1   
    22     7    15 1   
    23     8    16 1   
    24     8    29 1   
    25     8    30 1   
    26     8    31 1   
    27    10    25 1   
    28    11    23 1   
    29    13    16 1   
    30    13    32 1   
    31    14    17 1   
    32    16    27 1   
    33    16    28 1   
@<TRIPOS>SUBSTRUCTURE
     1 NHT         1 TEMP              0 ****  ****    0 ROOT
