@<TRIPOS>MOLECULE
molecule
   32    33     1     0     0
SMALL
bcc


@<TRIPOS>ATOM
      1 C1           0.0000     0.0000     0.0000 c3         1 NHT       0.253200
      2 C2           1.5220     0.0000     0.0000 c3         1 NHT       0.096500
      3 C3           2.1480     0.0000     1.3860 c3         1 NHT       0.137100
      4 C4           1.3510     0.8450     2.3730 c3         1 NHT       0.105100
      5 C5          -0.0890     0.3170     2.4000 c3         1 NHT       0.145100
      6 C6          -0.9010     1.0790     3.4490 c3         1 NHT       0.154400
      7 C7           1.1840    -2.1400    -0.9710 c2         1 NHT       0.721100
      8 C10          1.0410    -5.4610    -2.6980 c3         1 NHT      -0.109100
      9 N2           2.0020    -1.1680    -0.7360 n2         1 NHT      -0.728900
     10 O3           3.4760     0.5190     1.2960 oh         1 NHT      -0.599800
     11 O4           1.9290     0.7370     3.6760 oh         1 NHT      -0.599800
     12 O5          -0.6430     0.5310     1.1200 os         1 NHT      -0.365600
     13 N1           1.4800    -3.2790    -1.6840 nu         1 NHT      -0.856200
     14 O6          -2.2210     0.5350     3.5180 oh         1 NHT      -0.599800
     15 S1          -0.3830    -1.7690    -0.2250 ss         1 NHT      -0.397300
     16 C9           0.4560    -4.3080    -1.8780 c3         1 NHT       0.231800
     17 H6          -2.6970     0.9520     4.2160 ho         1 NHT       0.403000
     18 H6C1        -0.9560     2.1260     3.1740 h1         1 NHT       0.038200
     19 H6C2        -0.4210     0.9850     4.4160 h1         1 NHT       0.038200
     20 H5          -0.0870    -0.7420     2.6260 h1         1 NHT       0.077700
     21 H4           1.3540     1.8790     2.0510 h1         1 NHT       0.057700
     22 H1          -0.3420     0.5390    -0.8750 h2         1 NHT       0.109700
     23 HA           2.4330     1.5120     3.8610 ho         1 NHT       0.414000
     24 H3           2.1880    -1.0190     1.7510 h1         1 NHT       0.060700
     25 HB           4.0960    -0.1730     1.4550 ho         1 NHT       0.416000
     26 H2           1.8590     0.8890    -0.5210 h1         1 NHT       0.099700
     27 H9C1         0.1310    -4.6800    -0.9140 h1         1 NHT       0.050700
     28 H9C2        -0.3890    -3.8820    -2.4050 h1         1 NHT       0.050700
     29 H8           0.2830    -6.2210    -2.8440 hc         1 NHT       0.046700
     30 H11          1.3690    -5.0880    -3.6610 hc         1 NHT       0.046700
     31 H12          1.8840    -5.8890    -2.1700 hc         1 NHT       0.046700
     32 H13          2.3930    -3.4000    -2.0770 hn         1 NHT       0.457800
@<TRIPOS>BOND
     1    14     6 1
     2     6     5 1
     3     5    12 1
     4     5     4 1
     5    12     1 1
     6     4    11 1
     7     4     3 1
     8     3    10 1
     9     3     2 1
    10     2     9 1
    11     2     1 1
    12     9     7 2
    13     1    15 1
    14    15     7 1
    15     7    13 1
    16    13    16 1
    17    16     8 1
    18    14    17 1
    19     6    18 1
    20     6    19 1
    21     5    20 1
    22     4    21 1
    23     1    22 1
    24    11    23 1
    25     3    24 1
    26    10    25 1
    27     2    26 1
    28    16    27 1
    29    16    28 1
    30     8    29 1
    31     8    30 1
    32     8    31 1
    33    13    32 1
@<TRIPOS>SUBSTRUCTURE
     1 NHT         1 TEMP              0 ****  ****    0 ROOT
