@<TRIPOS>MOLECULE
molecule
   44    46     1     0     0
SMALL
bcc


@<TRIPOS>ATOM
      1 N01          0.0000     0.0000     0.0000 nu         1 NHU      -0.745300
      2 N02         -1.5600     0.5790    -1.6420 nb         1 NHU      -0.827000
      3 N03          0.6070     1.3780    -1.7890 nb         1 NHU      -0.808000
      4 C05          3.6690     0.0000     0.0000 ca         1 NHU      -0.046500
      5 N05         -2.0370    -0.8420    -6.7730 nz         1 NHU      -0.678400
      6 C06          3.9310     0.0000     1.3730 ca         1 NHU      -0.250600
      7 N06          5.5750    -0.0010     3.1830 nz         1 NHU      -0.678400
      8 C07          2.8710    -0.0000     2.2840 ca         1 NHU      -0.046500
      9 C08          1.5720     0.0000     1.8270 ca         1 NHU      -0.138000
     10 C09          1.3150     0.0000     0.4590 ca         1 NHU       0.250600
     11 C10          2.3680     0.0010    -0.4510 ca         1 NHU      -0.138000
     12 C12         -0.3250     0.6670    -1.1700 ca         1 NHU       0.966900
     13 C13         -1.9030     1.2070    -2.7610 ca         1 NHU       0.770200
     14 C14         -0.9420     1.9640    -3.4360 ca         1 NHU      -0.496600
     15 C15          0.3330     2.0300    -2.9090 ca         1 NHU       0.533200
     16 C16         -3.5160     1.6810    -4.4820 ca         1 NHU       0.245600
     17 C17         -4.1840     2.8980    -4.5360 ca         1 NHU      -0.126000
     18 C18         -4.5000     3.4580    -5.7570 ca         1 NHU      -0.037000
     19 C19         -4.1560     2.8150    -6.9350 ca         1 NHU      -0.105000
     20 C20         -3.4940     1.6070    -6.9000 ca         1 NHU      -0.105000
     21 C21         -3.1620     1.0290    -5.6730 ca         1 NHU      -0.230600
     22 C22         -2.4520    -0.2630    -5.6300 c          1 NHU       0.508700
     23 O23         -2.2410    -0.8050    -4.5610 o          1 NHU      -0.414100
     24 O25          6.2450    -0.0000     1.0650 o          1 NHU      -0.423100
     25 HN01        -0.7050    -0.5020     0.5020 hn         1 NHU       0.485800
     26 HN04        -3.9000     0.6380    -2.7230 hn         1 NHU       0.487800
     27 H05          4.4920     0.0740    -0.7000 ha         1 NHU       0.144500
     28 HN05        -1.5240    -1.6740    -6.5580 hn         1 NHU       0.479133
     29 HN0A        -2.8310    -1.0760    -7.3360 hn         1 NHU       0.479133
     30 HN06         5.1800    -0.8220     3.5970 hn         1 NHU       0.478800
     31 HN0B         6.5640     0.0070     3.3350 hn         1 NHU       0.478800
     32 H07          3.0710    -0.0470     3.3470 ha         1 NHU       0.144500
     33 H08          0.7500    -0.0090     2.5320 ha         1 NHU       0.164000
     34 H10          2.2940    -0.6190    -1.3360 ha         1 NHU       0.164000
     35 H14         -1.1910     2.4870    -4.3510 ha         1 NHU       0.147000
     36 H15          1.1020     2.6080    -3.4080 h4         1 NHU       0.045100
     37 H17         -4.4670     3.4010    -3.6190 ha         1 NHU       0.180000
     38 H18         -5.0330     4.4010    -5.7940 ha         1 NHU       0.176000
     39 H19         -4.4170     3.2600    -7.8880 ha         1 NHU       0.173000
     40 H20         -3.2740     1.0830    -7.8230 ha         1 NHU       0.119000
     41 H053        -1.4530    -0.2050    -7.2770 hn         1 NHU       0.479133
     42 H063         5.1650     0.8120     3.5990 hn         1 NHU       0.478800
     43 C11          5.3240     0.0000     1.8590 c          1 NHU       0.509700
     44 N04         -3.1970     1.1140    -3.2530 nu         1 NHU      -0.796300
@<TRIPOS>BOND
     1    10     1 1
     2     1    12 1
     3     1    25 1
     4     2    13 ar
     5     2    12 ar
     6    12     3 ar
     7     3    15 ar
     8    16    44 1
     9    44    13 1
    10    44    26 1
    11     6     4 ar
    12     4    11 ar
    13     4    27 1
    14     5    22 1
    15     5    28 1
    16     5    29 1
    17    43     6 1
    18     6     8 ar
    19     7    43 1
    20     7    30 1
    21     7    31 1
    22     8     9 ar
    23     8    32 1
    24     9    10 ar
    25     9    33 1
    26    11    10 ar
    27    11    34 1
    28    24    43 2
    29    13    14 ar
    30    14    15 ar
    31    14    35 1
    32    15    36 1
    33    17    16 ar
    34    21    16 ar
    35    18    17 ar
    36    17    37 1
    37    19    18 ar
    38    18    38 1
    39    19    20 ar
    40    19    39 1
    41    20    21 ar
    42    20    40 1
    43    21    22 1
    44    22    23 2
    45    41     5 1
    46    42     7 1
@<TRIPOS>SUBSTRUCTURE
     1 NHU         1 TEMP              0 ****  ****    0 ROOT
