@<TRIPOS>MOLECULE
NHU
   44    46     1     0     0
SMALL
bcc


@<TRIPOS>ATOM
      1 N01          0.0000     0.0000     0.0000 nu         1 NHU      -0.271300
      2 N02         -1.5600     0.5790    -1.6420 nb         1 NHU      -0.709000
      3 N03          0.6070     1.3780    -1.7890 nb         1 NHU      -0.710000
      4 C05          3.6690     0.0000     0.0000 ca         1 NHU      -0.004000
      5 N05         -2.0370    -0.8420    -6.7730 nz         1 NHU       0.200600
      6 C06          3.9310     0.0000     1.3730 ca         1 NHU      -0.278600
      7 N06          5.5750    -0.0010     3.1830 nz         1 NHU       0.201600
      8 C07          2.8710    -0.0000     2.2840 ca         1 NHU      -0.004000
      9 C08          1.5720     0.0000     1.8270 ca         1 NHU      -0.113000
     10 C09          1.3150     0.0000     0.4590 ca         1 NHU       0.090600
     11 C10          2.3680     0.0010    -0.4510 ca         1 NHU      -0.113000
     12 C12         -0.3250     0.6670    -1.1700 ca         1 NHU       0.728900
     13 C13         -1.9030     1.2070    -2.7610 ca         1 NHU       0.577200
     14 C14         -0.9420     1.9640    -3.4360 ca         1 NHU      -0.487600
     15 C15          0.3330     2.0300    -2.9090 ca         1 NHU       0.534200
     16 C16         -3.5160     1.6810    -4.4820 ca         1 NHU       0.109600
     17 C17         -4.1840     2.8980    -4.5360 ca         1 NHU      -0.094000
     18 C18         -4.5000     3.4580    -5.7570 ca         1 NHU       0.007000
     19 C19         -4.1560     2.8150    -6.9350 ca         1 NHU      -0.066000
     20 C20         -3.4940     1.6070    -6.9000 ca         1 NHU      -0.072000
     21 C21         -3.1620     1.0290    -5.6730 ca         1 NHU      -0.249600
     22 C22         -2.4520    -0.2630    -5.6300 c          1 NHU       0.361700
     23 O23         -2.2410    -0.8050    -4.5610 o          1 NHU      -0.438100
     24 O25          6.2450    -0.0000     1.0650 o          1 NHU      -0.437100
     25 HN01        -0.7050    -0.5020     0.5020 hn         1 NHU       0.308800
     26 HN04        -3.9000     0.6380    -2.7230 hn         1 NHU       0.321800
     27 H05          4.4920     0.0740    -0.7000 ha         1 NHU       0.109500
     28 HN05        -1.5240    -1.6740    -6.5580 hn         1 NHU       0.249133
     29 HN0A        -2.8310    -1.0760    -7.3360 hn         1 NHU       0.249133
     30 HN06         5.1800    -0.8220     3.5970 hn         1 NHU       0.247133
     31 HN0B         6.5640     0.0070     3.3350 hn         1 NHU       0.247133
     32 H07          3.0710    -0.0470     3.3470 ha         1 NHU       0.109500
     33 H08          0.7500    -0.0090     2.5320 ha         1 NHU       0.131000
     34 H10          2.2940    -0.6190    -1.3360 ha         1 NHU       0.131000
     35 H14         -1.1910     2.4870    -4.3510 ha         1 NHU       0.132000
     36 H15          1.1020     2.6080    -3.4080 h4         1 NHU      -0.007900
     37 H17         -4.4670     3.4010    -3.6190 ha         1 NHU       0.142000
     38 H18         -5.0330     4.4010    -5.7940 ha         1 NHU       0.134000
     39 H19         -4.4170     3.2600    -7.8880 ha         1 NHU       0.136000
     40 H20         -3.2740     1.0830    -7.8230 ha         1 NHU       0.089000
     41 H053        -1.4530    -0.2050    -7.2770 hn         1 NHU       0.249133
     42 H063         5.1650     0.8120     3.5990 hn         1 NHU       0.247133
     43 C11          5.3240     0.0000     1.8590 c          1 NHU       0.359700
     44 N04         -3.1970     1.1140    -3.2530 nu         1 NHU      -0.348300
@<TRIPOS>BOND
     1     1    10 1   
     2     1    12 1   
     3     1    25 1   
     4     2    12 ar  
     5     2    13 ar  
     6     3    12 ar  
     7     3    15 ar  
     8     4     6 ar  
     9     4    11 ar  
    10     4    27 1   
    11     5    22 1   
    12     5    28 1   
    13     5    29 1   
    14     5    41 1   
    15     6     8 ar  
    16     6    43 1   
    17     7    30 1   
    18     7    31 1   
    19     7    42 1   
    20     7    43 1   
    21     8     9 ar  
    22     8    32 1   
    23     9    10 ar  
    24     9    33 1   
    25    10    11 ar  
    26    11    34 1   
    27    13    14 ar  
    28    13    44 1   
    29    14    15 ar  
    30    14    35 1   
    31    15    36 1   
    32    16    17 ar  
    33    16    21 ar  
    34    16    44 1   
    35    17    18 ar  
    36    17    37 1   
    37    18    19 ar  
    38    18    38 1   
    39    19    20 ar  
    40    19    39 1   
    41    20    21 ar  
    42    20    40 1   
    43    21    22 1   
    44    22    23 2   
    45    24    43 2   
    46    26    44 1   
@<TRIPOS>SUBSTRUCTURE
     1 NHU         1 TEMP              0 ****  ****    0 ROOT
