@<TRIPOS>MOLECULE
molecule
   42    44     1     0     0
SMALL
bcc


@<TRIPOS>ATOM
      1 O6B          0.0000     0.0000     0.0000 oh         1 NHV      -0.622800
      2 C6B          1.4180     0.0000     0.0000 c3         1 NHV       0.144400
      3 C5B          1.9460     0.0000     1.4510 c3         1 NHV       0.052000
      4 C4B          1.7100    -1.3580     2.1590 c3         1 NHV       0.110100
      5 O4B          2.1700    -2.4140     1.3120 oh         1 NHV      -0.589800
      6 C3B          2.3960    -1.4510     3.5480 c3         1 NHV       0.110100
      7 O3B          1.6030    -2.2550     4.4290 oh         1 NHV      -0.574800
      8 O2B          2.7240     0.0700     5.5870 oh         1 NHV      -0.573800
      9 N1B          1.2960     0.9560     2.3730 na         1 NHV       0.023900
     10 C8B          0.2860     1.8280     2.1840 cc         1 NHV      -0.097300
     11 C7B         -0.0290     2.3080     3.4430 cd         1 NHV      -0.124600
     12 N2B          0.8480     1.7870     4.3470 na         1 NHV      -0.072100
     13 C1B          1.6080     0.9140     3.6520 cc         1 NHV      -0.036900
     14 C7          -1.0750     3.3350     3.7270 c3         1 NHV       0.307100
     15 N1          -2.2610     2.7340     4.3260 nu         1 NHV      -0.821600
     16 C1          -3.1980     1.9920     3.6400 ca         1 NHV       0.175600
     17 C6          -3.2730     2.0040     2.2400 ca         1 NHV      -0.200000
     18 C5          -4.2580     1.2200     1.5820 ca         1 NHV      -0.080500
     19 C4          -5.1730     0.4210     2.2950 ca         1 NHV      -0.160000
     20 C3          -5.1110     0.4070     3.7050 ca         1 NHV      -0.080500
     21 C2          -4.1300     1.1940     4.3520 ca         1 NHV      -0.200000
     22 C20          2.6550    -0.0580     4.1520 c3         1 NHV       0.211400
     23 H6B         -0.3140    -0.1640    -0.8740 ho         1 NHV       0.439000
     24 H6B1         1.7770     0.8840    -0.5130 h1         1 NHV       0.067700
     25 H6B2         1.7770    -0.8840    -0.5130 h1         1 NHV       0.067700
     26 H5B          3.0100     0.2030     1.4370 h1         1 NHV       0.100700
     27 H4B          0.6440    -1.4780     2.3050 h1         1 NHV       0.089700
     28 HA           1.6350    -3.1790     1.4440 ho         1 NHV       0.439000
     29 H3B          3.3540    -1.9380     3.4140 h1         1 NHV       0.076700
     30 HB           2.1070    -2.9990     4.7150 ho         1 NHV       0.430000
     31 H20          3.6070     0.2760     3.7590 h1         1 NHV       0.067700
     32 H2B          3.6250     0.1600     5.8510 ho         1 NHV       0.436000
     33 H8B         -0.2200     2.0520     1.2530 h4         1 NHV       0.241000
     34 HC           0.8670     1.9530     5.3330 hn         1 NHV       0.369700
     35 H7C1        -0.6700     4.0750     4.4070 h1         1 NHV       0.080700
     36 H7C2        -1.3550     3.8220     2.8000 h1         1 NHV       0.080700
     37 H1          -2.4050     2.8710     5.3070 hn         1 NHV       0.442800
     38 H6          -2.5850     2.6080     1.6620 ha         1 NHV       0.122500
     39 H2          -4.0840     1.1820     5.4340 ha         1 NHV       0.122500
     40 H5          -4.3060     1.2350     0.5000 ha         1 NHV       0.139500
     41 H4          -5.9140    -0.1700     1.7710 ha         1 NHV       0.145000
     42 H3          -5.8040    -0.1950     4.2810 ha         1 NHV       0.139500
@<TRIPOS>BOND
     1     1     2 1
     2     2     3 1
     3     3     4 1
     4     3     9 1
     5     4     5 1
     6     4     6 1
     7     6     7 1
     8     6    22 1
     9     8    22 1
    10     9    10 1
    11     9    13 2
    12    10    11 2
    13    11    12 1
    14    11    14 1
    15    12    13 1
    16    13    22 1
    17    14    15 1
    18    15    16 1
    19    16    17 ar
    20    16    21 ar
    21    17    18 ar
    22    18    19 ar
    23    19    20 ar
    24    20    21 ar
    25     1    23 1
    26     2    24 1
    27     2    25 1
    28     3    26 1
    29     4    27 1
    30     5    28 1
    31     6    29 1
    32     7    30 1
    33    22    31 1
    34     8    32 1
    35    10    33 1
    36    12    34 1
    37    14    35 1
    38    14    36 1
    39    15    37 1
    40    17    38 1
    41    21    39 1
    42    18    40 1
    43    19    41 1
    44    20    42 1
@<TRIPOS>SUBSTRUCTURE
     1 NHV         1 TEMP              0 ****  ****    0 ROOT
