@<TRIPOS>MOLECULE
NHX
   66    67     1     0     0
SMALL
bcc


@<TRIPOS>ATOM
      1 C            0.0000     0.0000     0.0000 c          1 NHX       0.309100
      2 N            1.9960     1.1950    -0.6910 ns         1 NHX      -0.206900
      3 O           -0.6060     0.9100    -0.5250 o          1 NHX      -0.401100
      4 CA           1.5070     0.0000     0.0000 c3         1 NHX      -0.040300
      5 CB           2.0170     0.0000     1.4430 c3         1 NHX      -0.020100
      6 CAA         10.1050     0.3680    -0.8730 c3         1 NHX       0.003400
      7 CAB          9.7380     2.1200    -2.6170 c3         1 NHX       0.003400
      8 NAD         -0.6740    -1.0070     0.5890 nz         1 NHX       0.202600
      9 OAF          9.6050     4.4750    -1.3550 o          1 NHX      -0.624100
     10 OAG          5.2690     3.4090     0.0070 o          1 NHX      -0.673100
     11 OAH          3.9130     0.2010    -1.1990 o          1 NHX      -0.620100
     12 OAI         11.2010     5.7040     0.3950 oh         1 NHX      -0.436100
     13 CAJ          3.9140     8.3440    -5.9000 ca         1 NHX      -0.089000
     14 CAK          2.7010     8.2730    -5.2200 ca         1 NHX      -0.084000
     15 CAL          4.8180     3.7860    -4.7620 ca         1 NHX      -0.109000
     16 CAM          4.7460     7.2680    -5.9650 ca         1 NHX      -0.081000
     17 CAN          2.3100     7.1260    -4.6000 ca         1 NHX      -0.096000
     18 CAO          5.2080     4.9340    -5.3820 ca         1 NHX      -0.060000
     19 CAP          2.7730     4.7910    -4.0180 ca         1 NHX      -0.078000
     20 CAQ          7.8740     3.9240     0.1500 c3         1 NHX      -0.085400
     21 CAR          3.2030     2.4280    -3.4100 c3         1 NHX       0.033900
     22 CAS          7.9690     1.6640    -0.9120 c3         1 NHX      -0.017400
     23 NAT          9.9500     5.1330     0.7350 ns         1 NHX      -0.051400
     24 NAV          5.1860     2.4190    -1.9770 ns         1 NHX      -0.164900
     25 CAX          9.2050     4.5300    -0.2120 c          1 NHX       0.569100
     26 CAY          5.8660     2.9780    -0.9570 c          1 NHX       0.592100
     27 CAZ          3.2180     1.1930    -1.2590 c          1 NHX       0.577100
     28 CBA          3.6030     3.7150    -4.0840 ca         1 NHX      -0.114300
     29 CBB          4.3770     6.0660    -5.3370 ca         1 NHX      -0.033000
     30 CBC          3.1410     5.9940    -4.6450 ca         1 NHX      -0.032000
     31 CBD          9.4780     1.7340    -1.1590 c3         1 NHX      -0.067700
     32 CBF          7.3700     3.0680    -1.0140 c3         1 NHX      -0.127700
     33 CBG          3.7210     2.4240    -1.9690 c3         1 NHX      -0.040300
     34 HN           1.4290     2.0190    -0.7280 hn         1 NHX       0.206500
     35 HA           1.8680    -0.8850    -0.5100 h1         1 NHX       0.088700
     36 HB           1.2520     0.4010     2.0960 hc         1 NHX       0.032700
     37 HBA          2.2530    -1.0140     1.7430 hc         1 NHX       0.032700
     38 HBB          2.9080     0.6130     1.5110 hc         1 NHX       0.032700
     39 HAA          9.6180    -0.3870    -1.4790 hc         1 NHX       0.006700
     40 HAAA        11.1600     0.3980    -1.1130 hc         1 NHX       0.006700
     41 HAAB         9.9790     0.1260     0.1750 hc         1 NHX       0.006700
     42 HAB          9.0760     2.9300    -2.8990 hc         1 NHX       0.006700
     43 HABA         9.5540     1.2640    -3.2550 hc         1 NHX       0.006700
     44 HABB        10.7670     2.4390    -2.7280 hc         1 NHX       0.006700
     45 HNAD        -1.5140    -1.1920     0.0760 hn         1 NHX       0.250133
     46 HNAA        -0.9070    -0.7490     1.5270 hn         1 NHX       0.250133
     47 HOAI        11.5260     6.2060     1.1240 ho         1 NHX       0.396000
     48 HAJ          4.2010     9.2700    -6.3840 ha         1 NHX       0.108000
     49 HAK          2.0580     9.1440    -5.1830 ha         1 NHX       0.106000
     50 HAL          5.4600     2.9150    -4.7990 ha         1 NHX       0.103000
     51 HAM          5.6870     7.3370    -6.4970 ha         1 NHX       0.113000
     52 HAN          1.3630     7.0850    -4.0750 ha         1 NHX       0.104000
     53 HAO          6.1560     4.9740    -5.9060 ha         1 NHX       0.115000
     54 HAP          1.8310     4.7210    -3.4870 ha         1 NHX       0.100000
     55 HAQ          7.9870     3.3040     1.0310 hc         1 NHX       0.045200
     56 HAQA         7.1600     4.7130     0.3530 hc         1 NHX       0.045200
     57 HAR          3.6300     1.5900    -3.9490 hc         1 NHX       0.024700
     58 HARA         2.1230     2.3420    -3.4060 hc         1 NHX       0.024700
     59 HAS          7.7830     1.2630     0.0780 hc         1 NHX       0.016200
     60 HASA         7.5110     1.0210    -1.6530 hc         1 NHX       0.016200
     61 HNAT         9.6140     5.1890     1.6760 hn         1 NHX       0.156500
     62 HNAV         5.6800     1.9440    -2.7070 hn         1 NHX       0.197500
     63 HBD          9.9170     2.4770    -0.5050 hc         1 NHX       0.044700
     64 HBF          7.6690     3.5210    -1.9520 hc         1 NHX       0.088700
     65 HBG          3.3650     3.3090    -1.4550 h1         1 NHX       0.072700
     66 HAD3        -0.1050    -1.8300     0.5970 hn         1 NHX       0.250133
@<TRIPOS>BOND
     1     1     3 2   
     2     1     4 1   
     3     1     8 1   
     4     2     4 1   
     5     2    27 1   
     6     2    34 1   
     7     4     5 1   
     8     4    35 1   
     9     5    36 1   
    10     5    37 1   
    11     5    38 1   
    12     6    31 1   
    13     6    39 1   
    14     6    40 1   
    15     6    41 1   
    16     7    31 1   
    17     7    42 1   
    18     7    43 1   
    19     7    44 1   
    20     8    45 1   
    21     8    46 1   
    22     8    66 1   
    23     9    25 2   
    24    10    26 2   
    25    11    27 2   
    26    12    23 1   
    27    12    47 1   
    28    13    14 ar  
    29    13    16 ar  
    30    13    48 1   
    31    14    17 ar  
    32    14    49 1   
    33    15    18 ar  
    34    15    28 ar  
    35    15    50 1   
    36    16    29 ar  
    37    16    51 1   
    38    17    30 ar  
    39    17    52 1   
    40    18    29 ar  
    41    18    53 1   
    42    19    28 ar  
    43    19    30 ar  
    44    19    54 1   
    45    20    25 1   
    46    20    32 1   
    47    20    55 1   
    48    20    56 1   
    49    21    28 1   
    50    21    33 1   
    51    21    57 1   
    52    21    58 1   
    53    22    31 1   
    54    22    32 1   
    55    22    59 1   
    56    22    60 1   
    57    23    25 1   
    58    23    61 1   
    59    24    26 1   
    60    24    33 1   
    61    24    62 1   
    62    26    32 1   
    63    27    33 1   
    64    29    30 ar  
    65    31    63 1   
    66    32    64 1   
    67    33    65 1   
@<TRIPOS>SUBSTRUCTURE
     1 NHX         1 TEMP              0 ****  ****    0 ROOT
