@<TRIPOS>MOLECULE
NHY
   10     9     1     0     0
SMALL
bcc


@<TRIPOS>ATOM
      1 O2           0.0000     0.0000     0.0000 o          1 NHY      -0.486100
      2 C            1.2150     0.0000     0.0000 c          1 NHY       0.280100
      3 N2           1.8890     0.0000     1.1680 nz         1 NHY       0.224600
      4 N1           1.8900    -0.0000    -1.1660 ns         1 NHY       0.040600
      5 O1           1.1830    -0.0000    -2.3930 oh         1 NHY      -0.388100
      6 HN21         1.2380    -0.0100     1.9280 hn         1 NHY       0.244133
      7 HN22         2.4560     0.8220     1.2260 hn         1 NHY       0.244133
      8 HN1          2.8900     0.0240    -1.1650 hn         1 NHY       0.162500
      9 HO1          1.7950    -0.0460    -3.1090 ho         1 NHY       0.434000
     10 H23          2.4700    -0.8130     1.2180 hn         1 NHY       0.244133
@<TRIPOS>BOND
     1     1     2 2   
     2     2     3 1   
     3     2     4 1   
     4     3     6 1   
     5     3     7 1   
     6     3    10 1   
     7     4     5 1   
     8     4     8 1   
     9     5     9 1   
@<TRIPOS>SUBSTRUCTURE
     1 NHY         1 TEMP              0 ****  ****    0 ROOT
