@<TRIPOS>MOLECULE
NI0
   63    65     1     0     0
SMALL
bcc


@<TRIPOS>ATOM
      1 CAQ          0.0000     0.0000     0.0000 c3         1 NI0       0.235300
      2 CAO          1.5330     0.0000     0.0000 c3         1 NI0       0.140800
      3 NBC          2.0190     0.0000     1.3870 n3         1 NI0      -0.546600
      4 CAD          3.4770     0.1730     1.4330 c3         1 NI0       0.190100
      5 CAP          1.6120    -1.2210     2.0940 c3         1 NI0       0.140800
      6 CAR          0.0830    -1.2720     2.1790 c3         1 NI0       0.235300
      7 NBD         -0.4700    -1.1270     0.8200 n3         1 NI0      -0.536500
      8 SBE         -1.5860    -2.2030     0.2370 sy         1 NI0       1.058200
      9 OAF         -1.4970    -2.1450    -1.1800 o          1 NI0      -0.587800
     10 OAG         -1.4110    -3.4030     0.9790 o          1 NI0      -0.587800
     11 CAV         -3.1790    -1.5840     0.6610 ca         1 NI0      -0.207500
     12 CAJ         -3.7580    -1.9400     1.8610 ca         1 NI0       0.051000
     13 CAH         -3.8440    -0.7380    -0.2100 ca         1 NI0       0.072000
     14 CAI         -5.0950    -0.2450     0.1110 ca         1 NI0      -0.254000
     15 CAX         -5.6920    -0.5960     1.3110 ca         1 NI0       0.256100
     16 OAU         -6.9210    -0.1130     1.6280 os         1 NI0      -0.249900
     17 CAN         -7.5420     0.7540     0.6770 c3         1 NI0       0.187400
     18 CAK         -8.9090     1.1940     1.2050 c3         1 NI0      -0.031400
     19 CAA         -9.5740     2.1210     0.1870 c3         1 NI0       0.010900
     20 CAY         -5.0210    -1.4500     2.1990 ca         1 NI0      -0.230900
     21 CAZ         -5.6440    -1.8260     3.4800 cc         1 NI0       0.355500
     22 NAS         -6.8370    -1.3540     3.7850 nd         1 NI0      -0.530300
     23 NAT         -4.9790    -2.6610     4.3300 ns         1 NI0       0.024600
     24 CBB         -5.5450    -3.0100     5.5050 c          1 NI0       0.597700
     25 OAE         -4.9660    -3.7550     6.2780 o          1 NI0      -0.688500
     26 CBA         -6.8180    -2.4950     5.8220 cc         1 NI0      -0.273400
     27 CAM         -7.4880    -2.8570     7.1220 c3         1 NI0       0.046800
     28 CAC         -8.2260    -4.1890     6.9630 c3         1 NI0       0.005900
     29 CAW         -7.4360    -1.6690     4.9300 cd         1 NI0       0.151400
     30 CAL         -8.7970    -1.1060     5.2470 c3         1 NI0       0.010800
     31 CAB         -8.6430     0.2830     5.8700 c3         1 NI0       0.013900
     32 H1          -0.3630     0.9300     0.4200 h1         1 NI0       0.026200
     33 H2          -0.3630    -0.1140    -1.0140 h1         1 NI0       0.026200
     34 H3           1.8930     0.8860    -0.5080 h1         1 NI0       0.016450
     35 H4           1.8940    -0.8860    -0.5080 h1         1 NI0       0.016450
     36 H6           3.9550    -0.6510     0.9180 h1         1 NI0       0.000700
     37 H7           3.8060     0.1940     2.4650 h1         1 NI0       0.000700
     38 H8           3.7460     1.1050     0.9490 h1         1 NI0       0.000700
     39 H9           1.9710    -2.0880     1.5520 h1         1 NI0       0.016450
     40 H10          2.0290    -1.2140     3.0940 h1         1 NI0       0.016450
     41 H11         -0.2730    -0.4610     2.8040 h1         1 NI0       0.026200
     42 H12         -0.2260    -2.2220     2.5970 h1         1 NI0       0.026200
     43 H13         -3.2330    -2.6000     2.5420 ha         1 NI0       0.121000
     44 H14         -3.3810    -0.4600    -1.1490 ha         1 NI0       0.121000
     45 H15         -5.6080     0.4170    -0.5750 ha         1 NI0       0.133000
     46 H16         -6.9170     1.6260     0.5220 h1         1 NI0       0.003700
     47 H17         -9.5330     0.3220     1.3610 hc         1 NI0       0.025700
     48 H18        -10.5420     2.4340     0.5610 hc         1 NI0       0.003367
     49 H19         -8.9490     2.9920     0.0300 hc         1 NI0       0.003367
     50 H20         -9.7020     1.5950    -0.7520 hc         1 NI0       0.003367
     51 H21         -4.0750    -3.0130     4.0830 hn         1 NI0       0.187500
     52 H22         -8.1960    -2.0820     7.3920 hc         1 NI0       0.026700
     53 H23         -6.7400    -2.9500     7.9010 hc         1 NI0       0.026700
     54 H24         -7.5780    -5.0000     7.2730 hc         1 NI0       0.004033
     55 H25         -9.1170    -4.1840     7.5790 hc         1 NI0       0.004033
     56 H26         -8.5050    -4.3250     5.9260 hc         1 NI0       0.004033
     57 H27         -9.3770    -1.0300     4.3350 hc         1 NI0       0.031700
     58 H28         -9.3060    -1.7600     5.9440 hc         1 NI0       0.031700
     59 H29         -7.5930     0.4900     6.0350 hc         1 NI0       0.004033
     60 H30         -9.0570     1.0270     5.2010 hc         1 NI0       0.004033
     61 H31         -9.1700     0.3150     6.8160 hc         1 NI0       0.004033
     62 H5          -7.6690     0.2290    -0.2620 h1         1 NI0       0.003700
     63 H32         -8.7820     1.7190     2.1430 hc         1 NI0       0.025700
@<TRIPOS>BOND
     1     1     2 1   
     2     1     7 1   
     3     1    32 1   
     4     1    33 1   
     5     2     3 1   
     6     2    34 1   
     7     2    35 1   
     8     3     4 1   
     9     3     5 1   
    10     4    36 1   
    11     4    37 1   
    12     4    38 1   
    13     5     6 1   
    14     5    39 1   
    15     5    40 1   
    16     6     7 1   
    17     6    41 1   
    18     6    42 1   
    19     7     8 1   
    20     8     9 2   
    21     8    10 2   
    22     8    11 1   
    23    11    12 ar  
    24    11    13 ar  
    25    12    20 ar  
    26    12    43 1   
    27    13    14 ar  
    28    13    44 1   
    29    14    15 ar  
    30    14    45 1   
    31    15    16 1   
    32    15    20 ar  
    33    16    17 1   
    34    17    18 1   
    35    17    46 1   
    36    17    62 1   
    37    18    19 1   
    38    18    47 1   
    39    18    63 1   
    40    19    48 1   
    41    19    49 1   
    42    19    50 1   
    43    20    21 1   
    44    21    22 2   
    45    21    23 1   
    46    22    29 1   
    47    23    24 1   
    48    23    51 1   
    49    24    25 2   
    50    24    26 1   
    51    26    27 1   
    52    26    29 2   
    53    27    28 1   
    54    27    52 1   
    55    27    53 1   
    56    28    54 1   
    57    28    55 1   
    58    28    56 1   
    59    29    30 1   
    60    30    31 1   
    61    30    57 1   
    62    30    58 1   
    63    31    59 1   
    64    31    60 1   
    65    31    61 1   
@<TRIPOS>SUBSTRUCTURE
     1 NI0         1 TEMP              0 ****  ****    0 ROOT
