@<TRIPOS>MOLECULE
molecule
   63    65     1     0     0
SMALL
bcc


@<TRIPOS>ATOM
      1 CAQ          0.0000     0.0000     0.0000 c3         1 NI0       0.236300
      2 CAO          1.5330     0.0000     0.0000 c3         1 NI0       0.153300
      3 NBC          2.0190     0.0000     1.3870 n3         1 NI0      -0.732600
      4 CAD          3.4770     0.1730     1.4330 c3         1 NI0       0.153100
      5 CAP          1.6120    -1.2210     2.0940 c3         1 NI0       0.153300
      6 CAR          0.0830    -1.2720     2.1790 c3         1 NI0       0.236300
      7 NBD         -0.4700    -1.1270     0.8200 n3         1 NI0      -0.822500
      8 SBE         -1.5860    -2.2030     0.2370 sy         1 NI0       1.429200
      9 OAF         -1.4970    -2.1450    -1.1800 o          1 NI0      -0.636300
     10 OAG         -1.4110    -3.4030     0.9790 o          1 NI0      -0.636300
     11 CAV         -3.1790    -1.5840     0.6610 ca         1 NI0      -0.359500
     12 CAJ         -3.7580    -1.9400     1.8610 ca         1 NI0       0.025000
     13 CAH         -3.8440    -0.7380    -0.2100 ca         1 NI0       0.032000
     14 CAI         -5.0950    -0.2450     0.1110 ca         1 NI0      -0.255000
     15 CAX         -5.6920    -0.5960     1.3110 ca         1 NI0       0.246100
     16 OAU         -6.9210    -0.1130     1.6280 os         1 NI0      -0.269900
     17 CAN         -7.5420     0.7540     0.6770 c3         1 NI0       0.124400
     18 CAK         -8.9090     1.1940     1.2050 c3         1 NI0      -0.080400
     19 CAA         -9.5740     2.1210     0.1870 c3         1 NI0      -0.092100
     20 CAY         -5.0210    -1.4500     2.1990 ca         1 NI0      -0.204900
     21 CAZ         -5.6440    -1.8260     3.4800 cc         1 NI0       0.553500
     22 NAS         -6.8370    -1.3540     3.7850 nd         1 NI0      -0.635300
     23 NAT         -4.9790    -2.6610     4.3300 ns         1 NI0      -0.448400
     24 CBB         -5.5450    -3.0100     5.5050 c          1 NI0       0.693700
     25 OAE         -4.9660    -3.7550     6.2780 o          1 NI0      -0.646500
     26 CBA         -6.8180    -2.4950     5.8220 cc         1 NI0      -0.267400
     27 CAM         -7.4880    -2.8570     7.1220 c3         1 NI0      -0.017200
     28 CAC         -8.2260    -4.1890     6.9630 c3         1 NI0      -0.089100
     29 CAW         -7.4360    -1.6690     4.9300 cd         1 NI0       0.194400
     30 CAL         -8.7970    -1.1060     5.2470 c3         1 NI0      -0.035200
     31 CAB         -8.6430     0.2830     5.8700 c3         1 NI0      -0.084100
     32 H1          -0.3630     0.9300     0.4200 h1         1 NI0       0.060450
     33 H2          -0.3630    -0.1140    -1.0140 h1         1 NI0       0.060450
     34 H3           1.8930     0.8860    -0.5080 h1         1 NI0       0.044200
     35 H4           1.8940    -0.8860    -0.5080 h1         1 NI0       0.044200
     36 H6           3.9550    -0.6510     0.9180 h1         1 NI0       0.034033
     37 H7           3.8060     0.1940     2.4650 h1         1 NI0       0.034033
     38 H8           3.7460     1.1050     0.9490 h1         1 NI0       0.034033
     39 H9           1.9710    -2.0880     1.5520 h1         1 NI0       0.044200
     40 H10          2.0290    -1.2140     3.0940 h1         1 NI0       0.044200
     41 H11         -0.2730    -0.4610     2.8040 h1         1 NI0       0.060450
     42 H12         -0.2260    -2.2220     2.5970 h1         1 NI0       0.060450
     43 H13         -3.2330    -2.6000     2.5420 ha         1 NI0       0.150000
     44 H14         -3.3810    -0.4600    -1.1490 ha         1 NI0       0.154000
     45 H15         -5.6080     0.4170    -0.5750 ha         1 NI0       0.150000
     46 H16         -6.9170     1.6260     0.5220 h1         1 NI0       0.037700
     47 H17         -9.5330     0.3220     1.3610 hc         1 NI0       0.059200
     48 H18        -10.5420     2.4340     0.5610 hc         1 NI0       0.038700
     49 H19         -8.9490     2.9920     0.0300 hc         1 NI0       0.038700
     50 H20         -9.7020     1.5950    -0.7520 hc         1 NI0       0.038700
     51 H21         -4.0750    -3.0130     4.0830 hn         1 NI0       0.337500
     52 H22         -8.1960    -2.0820     7.3920 hc         1 NI0       0.054700
     53 H23         -6.7400    -2.9500     7.9010 hc         1 NI0       0.054700
     54 H24         -7.5780    -5.0000     7.2730 hc         1 NI0       0.036700
     55 H25         -9.1170    -4.1840     7.5790 hc         1 NI0       0.036700
     56 H26         -8.5050    -4.3250     5.9260 hc         1 NI0       0.036700
     57 H27         -9.3770    -1.0300     4.3350 hc         1 NI0       0.061200
     58 H28         -9.3060    -1.7600     5.9440 hc         1 NI0       0.061200
     59 H29         -7.5930     0.4900     6.0350 hc         1 NI0       0.038367
     60 H30         -9.0570     1.0270     5.2010 hc         1 NI0       0.038367
     61 H31         -9.1700     0.3150     6.8160 hc         1 NI0       0.038367
     62 H5          -7.6690     0.2290    -0.2620 h1         1 NI0       0.037700
     63 H32         -8.7820     1.7190     2.1430 hc         1 NI0       0.059200
@<TRIPOS>BOND
     1    28    27 1
     2    27    26 1
     3    31    30 1
     4    30    29 1
     5    26    29 2
     6    26    24 1
     7    29    22 1
     8    25    24 2
     9    24    23 1
    10    22    21 2
    11    23    21 1
    12    21    20 1
    13    19    18 1
    14    20    12 ar
    15    20    15 ar
    16    18    17 1
    17     5     6 1
    18     5     3 1
    19    16    17 1
    20    16    15 1
    21    12    11 ar
    22    15    14 ar
    23     6     7 1
    24     3     4 1
    25     3     2 1
    26    11     8 1
    27    11    13 ar
    28    10     8 2
    29     7     1 1
    30     7     8 1
    31    14    13 ar
    32     2     1 1
    33     8     9 2
    34     1    32 1
    35     1    33 1
    36     2    34 1
    37     2    35 1
    38     4    36 1
    39     4    37 1
    40     4    38 1
    41     5    39 1
    42     5    40 1
    43     6    41 1
    44     6    42 1
    45    12    43 1
    46    13    44 1
    47    14    45 1
    48    17    46 1
    49    18    47 1
    50    19    48 1
    51    19    49 1
    52    19    50 1
    53    23    51 1
    54    27    52 1
    55    27    53 1
    56    28    54 1
    57    28    55 1
    58    28    56 1
    59    30    57 1
    60    30    58 1
    61    31    59 1
    62    31    60 1
    63    31    61 1
    64    17    62 1
    65    18    63 1
@<TRIPOS>SUBSTRUCTURE
     1 NI0         1 TEMP              0 ****  ****    0 ROOT
