@<TRIPOS>MOLECULE
molecule
   58    61     1     0     0
SMALL
bcc


@<TRIPOS>ATOM
      1 CAP          0.0000     0.0000     0.0000 c3         1 NI5       0.241800
      2 CAN          1.5330     0.0000     0.0000 c3         1 NI5       0.145300
      3 NBB          2.0200     0.0000     1.3850 n3         1 NI5      -0.726600
      4 CAB          3.4780     0.1750     1.4310 c3         1 NI5       0.153100
      5 CAO          1.6120    -1.2210     2.0940 c3         1 NI5       0.145300
      6 CAQ          0.0830    -1.2710     2.1800 c3         1 NI5       0.241800
      7 NBC         -0.4660    -1.1260     0.8230 n3         1 NI5      -0.820500
      8 SBD         -1.5810    -2.2030     0.2370 sy         1 NI5       1.426200
      9 OAD         -2.2120    -2.7830     1.3710 o          1 NI5      -0.633300
     10 OAE         -2.2950    -1.5240    -0.7870 o          1 NI5      -0.633300
     11 CAU         -0.6890    -3.4990    -0.5530 ca         1 NI5      -0.361500
     12 CAH         -0.3020    -4.6060     0.1710 ca         1 NI5       0.025000
     13 CAF         -0.3850    -3.4050    -1.9010 ca         1 NI5       0.030000
     14 CAG          0.3150    -4.4150    -2.5330 ca         1 NI5      -0.255000
     15 CAW          0.7170    -5.5340    -1.8180 ca         1 NI5       0.246100
     16 OAT          1.4040    -6.5270    -2.4370 os         1 NI5      -0.268900
     17 CAK          1.6800    -6.3540    -3.8290 c3         1 NI5       0.125400
     18 CAI          2.4550    -7.5670    -4.3480 c3         1 NI5      -0.080400
     19 CAA          2.7500    -7.3840    -5.8380 c3         1 NI5      -0.092100
     20 CAX          0.4060    -5.6350    -0.4560 ca         1 NI5      -0.204900
     21 CAY          0.8230    -6.8230     0.3130 cc         1 NI5       0.556500
     22 NAR          1.4940    -7.7820    -0.2910 nd         1 NI5      -0.630300
     23 CAV          1.8940    -8.8750     0.3620 cd         1 NI5       0.182400
     24 CAL          2.6640   -10.0820    -0.1280 c3         1 NI5      -0.028200
     25 CAJ          3.1890   -10.7720     1.1500 c3         1 NI5      -0.087400
     26 CAM          2.1570   -10.3240     2.2070 c3         1 NI5      -0.008200
     27 CAZ          1.6060    -9.0140     1.6880 cc         1 NI5      -0.281400
     28 CBA          0.8890    -7.9950     2.3430 c          1 NI5       0.701700
     29 OAC          0.6160    -8.0910     3.5290 o          1 NI5      -0.646500
     30 NAS          0.5120    -6.9070     1.6390 ns         1 NI5      -0.448400
     31 H1          -0.3630     0.9310     0.4190 h1         1 NI5       0.064700
     32 H2          -0.3630    -0.1160    -1.0140 h1         1 NI5       0.064700
     33 H3           1.8930     0.8860    -0.5080 h1         1 NI5       0.039700
     34 H4           1.8930    -0.8860    -0.5090 h1         1 NI5       0.039700
     35 H6           3.7460     1.1060     0.9480 h1         1 NI5       0.034033
     36 H7           3.8070     0.1960     2.4630 h1         1 NI5       0.034033
     37 H8           3.9570    -0.6500     0.9170 h1         1 NI5       0.034033
     38 H9           2.0290    -1.2130     3.0930 h1         1 NI5       0.039700
     39 H10          1.9720    -2.0880     1.5530 h1         1 NI5       0.039700
     40 H11         -0.2260    -2.2220     2.5970 h1         1 NI5       0.064700
     41 H12         -0.2720    -0.4610     2.8040 h1         1 NI5       0.064700
     42 H13         -0.5460    -4.6790     1.2240 ha         1 NI5       0.150000
     43 H14         -0.6960    -2.5330    -2.4640 ha         1 NI5       0.154000
     44 H15          0.5490    -4.3330    -3.5870 ha         1 NI5       0.150000
     45 H16          2.2720    -5.4590    -3.9710 h1         1 NI5       0.038200
     46 H17          0.7470    -6.2610    -4.3730 h1         1 NI5       0.038200
     47 H18          3.3870    -7.6600    -3.8040 hc         1 NI5       0.059700
     48 H19          1.8630    -8.4630    -4.2050 hc         1 NI5       0.059700
     49 H20          3.2930    -8.2450    -6.2080 hc         1 NI5       0.038700
     50 H21          1.8180    -7.2840    -6.3820 hc         1 NI5       0.038700
     51 H22          3.3480    -6.4920    -5.9810 hc         1 NI5       0.038700
     52 H23          3.4920    -9.7690    -0.7530 hc         1 NI5       0.063200
     53 H24          2.0070   -10.7500    -0.6720 hc         1 NI5       0.063200
     54 H25          4.1710   -10.3900     1.4020 hc         1 NI5       0.055200
     55 H26          3.1580   -11.8480     1.0320 hc         1 NI5       0.055200
     56 H27          1.3590   -11.0540     2.2690 hc         1 NI5       0.061700
     57 H28          2.6550   -10.1580     3.1540 hc         1 NI5       0.061700
     58 H29          0.0070    -6.1670     2.0850 hn         1 NI5       0.339500
@<TRIPOS>BOND
     1    10     8 2
     2    13    14 ar
     3    13    11 ar
     4     8     9 2
     5     8    11 1
     6     8     7 1
     7     1     2 1
     8     1     7 1
     9    14    15 ar
    10     2     3 1
    11    11    12 ar
    12     7     6 1
    13    17    18 1
    14    17    16 1
    15    15    16 1
    16    15    20 ar
    17     3     4 1
    18     3     5 1
    19    18    19 1
    20    12    20 ar
    21     6     5 1
    22    20    21 1
    23    21    30 1
    24    21    22 2
    25    30    28 1
    26    22    23 1
    27    28    29 2
    28    28    27 1
    29    23    27 2
    30    23    24 1
    31    27    26 1
    32    24    25 1
    33    26    25 1
    34     1    31 1
    35     1    32 1
    36     2    33 1
    37     2    34 1
    38     4    35 1
    39     4    36 1
    40     4    37 1
    41     5    38 1
    42     5    39 1
    43     6    40 1
    44     6    41 1
    45    12    42 1
    46    13    43 1
    47    14    44 1
    48    17    45 1
    49    17    46 1
    50    18    47 1
    51    18    48 1
    52    19    49 1
    53    19    50 1
    54    19    51 1
    55    24    52 1
    56    24    53 1
    57    25    54 1
    58    25    55 1
    59    26    56 1
    60    26    57 1
    61    30    58 1
@<TRIPOS>SUBSTRUCTURE
     1 NI5         1 TEMP              0 ****  ****    0 ROOT
