@<TRIPOS>MOLECULE
NI5
   58    61     1     0     0
SMALL
bcc


@<TRIPOS>ATOM
      1 CAP          0.0000     0.0000     0.0000 c3         1 NI5       0.241800
      2 CAN          1.5330     0.0000     0.0000 c3         1 NI5       0.132800
      3 NBB          2.0200     0.0000     1.3850 n3         1 NI5      -0.538600
      4 CAB          3.4780     0.1750     1.4310 c3         1 NI5       0.189100
      5 CAO          1.6120    -1.2210     2.0940 c3         1 NI5       0.132800
      6 CAQ          0.0830    -1.2710     2.1800 c3         1 NI5       0.241800
      7 NBC         -0.4660    -1.1260     0.8230 n3         1 NI5      -0.534500
      8 SBD         -1.5810    -2.2030     0.2370 sy         1 NI5       1.057200
      9 OAD         -2.2120    -2.7830     1.3710 o          1 NI5      -0.585800
     10 OAE         -2.2950    -1.5240    -0.7870 o          1 NI5      -0.585800
     11 CAU         -0.6890    -3.4990    -0.5530 ca         1 NI5      -0.210500
     12 CAH         -0.3020    -4.6060     0.1710 ca         1 NI5       0.050000
     13 CAF         -0.3850    -3.4050    -1.9010 ca         1 NI5       0.069000
     14 CAG          0.3150    -4.4150    -2.5330 ca         1 NI5      -0.254000
     15 CAW          0.7170    -5.5340    -1.8180 ca         1 NI5       0.255100
     16 OAT          1.4040    -6.5270    -2.4370 os         1 NI5      -0.249900
     17 CAK          1.6800    -6.3540    -3.8290 c3         1 NI5       0.187400
     18 CAI          2.4550    -7.5670    -4.3480 c3         1 NI5      -0.030400
     19 CAA          2.7500    -7.3840    -5.8380 c3         1 NI5       0.010900
     20 CAX          0.4060    -5.6350    -0.4560 ca         1 NI5      -0.230900
     21 CAY          0.8230    -6.8230     0.3130 cc         1 NI5       0.351500
     22 NAR          1.4940    -7.7820    -0.2910 nd         1 NI5      -0.515300
     23 CAV          1.8940    -8.8750     0.3620 cd         1 NI5       0.131400
     24 CAL          2.6640   -10.0820    -0.1280 c3         1 NI5       0.037800
     25 CAJ          3.1890   -10.7720     1.1500 c3         1 NI5      -0.032400
     26 CAM          2.1570   -10.3240     2.2070 c3         1 NI5       0.071800
     27 CAZ          1.6060    -9.0140     1.6880 cc         1 NI5      -0.288400
     28 CBA          0.8890    -7.9950     2.3430 c          1 NI5       0.607700
     29 OAC          0.6160    -8.0910     3.5290 o          1 NI5      -0.689500
     30 NAS          0.5120    -6.9070     1.6390 ns         1 NI5       0.024600
     31 H1          -0.3630     0.9310     0.4190 h1         1 NI5       0.028700
     32 H2          -0.3630    -0.1160    -1.0140 h1         1 NI5       0.028700
     33 H3           1.8930     0.8860    -0.5080 h1         1 NI5       0.011700
     34 H4           1.8930    -0.8860    -0.5090 h1         1 NI5       0.011700
     35 H6           3.7460     1.1060     0.9480 h1         1 NI5       0.001033
     36 H7           3.8070     0.1960     2.4630 h1         1 NI5       0.001033
     37 H8           3.9570    -0.6500     0.9170 h1         1 NI5       0.001033
     38 H9           2.0290    -1.2130     3.0930 h1         1 NI5       0.011700
     39 H10          1.9720    -2.0880     1.5530 h1         1 NI5       0.011700
     40 H11         -0.2260    -2.2220     2.5970 h1         1 NI5       0.028700
     41 H12         -0.2720    -0.4610     2.8040 h1         1 NI5       0.028700
     42 H13         -0.5460    -4.6790     1.2240 ha         1 NI5       0.122000
     43 H14         -0.6960    -2.5330    -2.4640 ha         1 NI5       0.122000
     44 H15          0.5490    -4.3330    -3.5870 ha         1 NI5       0.133000
     45 H16          2.2720    -5.4590    -3.9710 h1         1 NI5       0.003200
     46 H17          0.7470    -6.2610    -4.3730 h1         1 NI5       0.003200
     47 H18          3.3870    -7.6600    -3.8040 hc         1 NI5       0.025700
     48 H19          1.8630    -8.4630    -4.2050 hc         1 NI5       0.025700
     49 H20          3.2930    -8.2450    -6.2080 hc         1 NI5       0.003367
     50 H21          1.8180    -7.2840    -6.3820 hc         1 NI5       0.003367
     51 H22          3.3480    -6.4920    -5.9810 hc         1 NI5       0.003367
     52 H23          3.4920    -9.7690    -0.7530 hc         1 NI5       0.027200
     53 H24          2.0070   -10.7500    -0.6720 hc         1 NI5       0.027200
     54 H25          4.1710   -10.3900     1.4020 hc         1 NI5       0.022700
     55 H26          3.1580   -11.8480     1.0320 hc         1 NI5       0.022700
     56 H27          1.3590   -11.0540     2.2690 hc         1 NI5       0.027700
     57 H28          2.6550   -10.1580     3.1540 hc         1 NI5       0.027700
     58 H29          0.0070    -6.1670     2.0850 hn         1 NI5       0.189500
@<TRIPOS>BOND
     1     1     2 1   
     2     1     7 1   
     3     1    31 1   
     4     1    32 1   
     5     2     3 1   
     6     2    33 1   
     7     2    34 1   
     8     3     4 1   
     9     3     5 1   
    10     4    35 1   
    11     4    36 1   
    12     4    37 1   
    13     5     6 1   
    14     5    38 1   
    15     5    39 1   
    16     6     7 1   
    17     6    40 1   
    18     6    41 1   
    19     7     8 1   
    20     8     9 2   
    21     8    10 2   
    22     8    11 1   
    23    11    12 ar  
    24    11    13 ar  
    25    12    20 ar  
    26    12    42 1   
    27    13    14 ar  
    28    13    43 1   
    29    14    15 ar  
    30    14    44 1   
    31    15    16 1   
    32    15    20 ar  
    33    16    17 1   
    34    17    18 1   
    35    17    45 1   
    36    17    46 1   
    37    18    19 1   
    38    18    47 1   
    39    18    48 1   
    40    19    49 1   
    41    19    50 1   
    42    19    51 1   
    43    20    21 1   
    44    21    22 2   
    45    21    30 1   
    46    22    23 1   
    47    23    24 1   
    48    23    27 2   
    49    24    25 1   
    50    24    52 1   
    51    24    53 1   
    52    25    26 1   
    53    25    54 1   
    54    25    55 1   
    55    26    27 1   
    56    26    56 1   
    57    26    57 1   
    58    27    28 1   
    59    28    29 2   
    60    28    30 1   
    61    30    58 1   
@<TRIPOS>SUBSTRUCTURE
     1 NI5         1 TEMP              0 ****  ****    0 ROOT
