@<TRIPOS>MOLECULE
NI7
   48    51     1     0     0
SMALL
bcc


@<TRIPOS>ATOM
      1 C1           0.0000     0.0000     0.0000 c3         1 NI7      -0.013800
      2 C2           1.5560     0.0000     0.0000 c3         1 NI7      -0.013800
      3 N3           1.9740     0.0000     1.3910 n          1 NI7      -0.156300
      4 C5           3.0420    -0.8670     1.8920 c3         1 NI7       0.118800
      5 C6           4.3640    -0.1540     1.7780 ca         1 NI7      -0.112300
      6 C7           4.8210     0.6240     2.8230 ca         1 NI7      -0.112000
      7 C8           6.0390     1.2810     2.7170 ca         1 NI7       0.126600
      8 O9           6.4910     2.0480     3.7440 oh         1 NI7      -0.496100
      9 C10          6.7930     1.1550     1.5610 ca         1 NI7      -0.131000
     10 C11          6.3320     0.3750     0.5170 ca         1 NI7      -0.083500
     11 C12          5.1220    -0.2830     0.6270 ca         1 NI7      -0.115500
     12 C13          1.2950     0.8710     2.1980 c          1 NI7       0.568000
     13 O14          1.5310     0.9270     3.3860 o          1 NI7      -0.612500
     14 C15          0.2490     1.7570     1.5800 c          1 NI7       0.568000
     15 O16          0.0100     2.8530     2.0450 o          1 NI7      -0.612500
     16 N17         -0.4250     1.3010     0.4800 n          1 NI7      -0.156300
     17 C18         -1.4960     2.0680    -0.1620 c3         1 NI7       0.118800
     18 C19         -2.8180     1.7060     0.4630 ca         1 NI7      -0.112300
     19 C20         -3.2820     2.4120     1.5550 ca         1 NI7      -0.112000
     20 C21         -4.4990     2.0790     2.1310 ca         1 NI7       0.126600
     21 O22         -4.9580     2.7740     3.2050 oh         1 NI7      -0.496100
     22 C23         -5.2480     1.0340     1.6080 ca         1 NI7      -0.131000
     23 C24         -4.7800     0.3300     0.5150 ca         1 NI7      -0.083500
     24 C25         -3.5690     0.6680    -0.0600 ca         1 NI7      -0.115500
     25 C26          1.8340    -1.2640    -0.8150 c3         1 NI7       0.144300
     26 N27          0.8230    -1.2010    -1.9090 n7         1 NI7      -0.576200
     27 C28         -0.3180    -0.3710    -1.4410 c3         1 NI7       0.144300
     28 H1          -0.3650    -0.7730     0.6650 h1         1 NI7       0.049700
     29 H2           1.9350     0.8760    -0.5130 h1         1 NI7       0.049700
     30 H5           2.8520    -1.1110     2.9300 h1         1 NI7       0.037450
     31 H5A          3.0720    -1.7780     1.3070 h1         1 NI7       0.037450
     32 H7           4.2490     0.6880     3.7400 ha         1 NI7       0.134500
     33 HO9          6.9740     1.5100     4.3490 ho         1 NI7       0.402500
     34 H10          7.7430     1.6680     1.4740 ha         1 NI7       0.114000
     35 H11          6.9220     0.2740    -0.3860 ha         1 NI7       0.103500
     36 H12          4.7610    -0.8940    -0.1910 ha         1 NI7       0.102500
     37 H18         -1.3110     3.1270    -0.0280 h1         1 NI7       0.037450
     38 H18A        -1.5210     1.8360    -1.2200 h1         1 NI7       0.037450
     39 H20         -2.7160     3.2550     1.9350 ha         1 NI7       0.134500
     40 HO22        -5.4450     3.5250     2.9090 ho         1 NI7       0.402500
     41 H23         -6.1980     0.7700     2.0570 ha         1 NI7       0.114000
     42 H24         -5.3650    -0.4840     0.1050 ha         1 NI7       0.103500
     43 H25         -3.2040     0.1150    -0.9170 ha         1 NI7       0.102500
     44 H26          2.8370    -1.2410    -1.2230 h1         1 NI7       0.026450
     45 H26A         1.6820    -2.1480    -0.2080 h1         1 NI7       0.026450
     46 HN27         0.5000    -2.1250    -2.1180 hn         1 NI7       0.257800
     47 H28         -0.4000     0.5240    -2.0470 h1         1 NI7       0.026450
     48 H28A        -1.2370    -0.9430    -1.4840 h1         1 NI7       0.026450
@<TRIPOS>BOND
     1     1     2 1   
     2     1    16 1   
     3     1    27 1   
     4     1    28 1   
     5     2     3 1   
     6     2    25 1   
     7     2    29 1   
     8     3     4 1   
     9     3    12 1   
    10     4     5 1   
    11     4    30 1   
    12     4    31 1   
    13     5     6 ar  
    14     5    11 ar  
    15     6     7 ar  
    16     6    32 1   
    17     7     8 1   
    18     7     9 ar  
    19     8    33 1   
    20     9    10 ar  
    21     9    34 1   
    22    10    11 ar  
    23    10    35 1   
    24    11    36 1   
    25    12    13 2   
    26    12    14 1   
    27    14    15 2   
    28    14    16 1   
    29    16    17 1   
    30    17    18 1   
    31    17    37 1   
    32    17    38 1   
    33    18    19 ar  
    34    18    24 ar  
    35    19    20 ar  
    36    19    39 1   
    37    20    21 1   
    38    20    22 ar  
    39    21    40 1   
    40    22    23 ar  
    41    22    41 1   
    42    23    24 ar  
    43    23    42 1   
    44    24    43 1   
    45    25    26 1   
    46    25    44 1   
    47    25    45 1   
    48    26    27 1   
    49    26    46 1   
    50    27    47 1   
    51    27    48 1   
@<TRIPOS>SUBSTRUCTURE
     1 NI7         1 TEMP              0 ****  ****    0 ROOT
