@<TRIPOS>MOLECULE
molecule
   48    51     1     0     0
SMALL
bcc


@<TRIPOS>ATOM
      1 C1           0.0000     0.0000     0.0000 c3         1 NI7       0.069200
      2 C2           1.5560     0.0000     0.0000 c3         1 NI7       0.069200
      3 N3           1.9740     0.0000     1.3910 n          1 NI7      -0.486800
      4 C5           3.0420    -0.8670     1.8920 c3         1 NI7       0.163800
      5 C6           4.3640    -0.1540     1.7780 ca         1 NI7      -0.107800
      6 C7           4.8210     0.6240     2.8230 ca         1 NI7      -0.127000
      7 C8           6.0390     1.2810     2.7170 ca         1 NI7       0.105600
      8 O9           6.4910     2.0480     3.7440 oh         1 NI7      -0.517100
      9 C10          6.7930     1.1550     1.5610 ca         1 NI7      -0.145000
     10 C11          6.3320     0.3750     0.5170 ca         1 NI7      -0.119500
     11 C12          5.1220    -0.2830     0.6270 ca         1 NI7      -0.130000
     12 C13          1.2950     0.8710     2.1980 c          1 NI7       0.644000
     13 O14          1.5310     0.9270     3.3860 o          1 NI7      -0.575500
     14 C15          0.2490     1.7570     1.5800 c          1 NI7       0.644000
     15 O16          0.0100     2.8530     2.0450 o          1 NI7      -0.575500
     16 N17         -0.4250     1.3010     0.4800 n          1 NI7      -0.486800
     17 C18         -1.4960     2.0680    -0.1620 c3         1 NI7       0.163800
     18 C19         -2.8180     1.7060     0.4630 ca         1 NI7      -0.107800
     19 C20         -3.2820     2.4120     1.5550 ca         1 NI7      -0.127000
     20 C21         -4.4990     2.0790     2.1310 ca         1 NI7       0.105600
     21 O22         -4.9580     2.7740     3.2050 oh         1 NI7      -0.517100
     22 C23         -5.2480     1.0340     1.6080 ca         1 NI7      -0.145000
     23 C24         -4.7800     0.3300     0.5150 ca         1 NI7      -0.119500
     24 C25         -3.5690     0.6680    -0.0600 ca         1 NI7      -0.130000
     25 C26          1.8340    -1.2640    -0.8150 c3         1 NI7       0.143800
     26 N27          0.8230    -1.2010    -1.9090 n7         1 NI7      -0.797200
     27 C28         -0.3180    -0.3710    -1.4410 c3         1 NI7       0.143800
     28 H1          -0.3650    -0.7730     0.6650 h1         1 NI7       0.075700
     29 H2           1.9350     0.8760    -0.5130 h1         1 NI7       0.075700
     30 H5           2.8520    -1.1110     2.9300 h1         1 NI7       0.067450
     31 H5A          3.0720    -1.7780     1.3070 h1         1 NI7       0.067450
     32 H7           4.2490     0.6880     3.7400 ha         1 NI7       0.159000
     33 HO9          6.9740     1.5100     4.3490 ho         1 NI7       0.419000
     34 H10          7.7430     1.6680     1.4740 ha         1 NI7       0.141000
     35 H11          6.9220     0.2740    -0.3860 ha         1 NI7       0.133000
     36 H12          4.7610    -0.8940    -0.1910 ha         1 NI7       0.124500
     37 H18         -1.3110     3.1270    -0.0280 h1         1 NI7       0.067450
     38 H18A        -1.5210     1.8360    -1.2200 h1         1 NI7       0.067450
     39 H20         -2.7160     3.2550     1.9350 ha         1 NI7       0.159000
     40 HO22        -5.4450     3.5250     2.9090 ho         1 NI7       0.419000
     41 H23         -6.1980     0.7700     2.0570 ha         1 NI7       0.141000
     42 H24         -5.3650    -0.4840     0.1050 ha         1 NI7       0.133000
     43 H25         -3.2040     0.1150    -0.9170 ha         1 NI7       0.124500
     44 H26          2.8370    -1.2410    -1.2230 h1         1 NI7       0.057200
     45 H26A         1.6820    -2.1480    -0.2080 h1         1 NI7       0.057200
     46 HN27         0.5000    -2.1250    -2.1180 hn         1 NI7       0.357800
     47 H28         -0.4000     0.5240    -2.0470 h1         1 NI7       0.057200
     48 H28A        -1.2370    -0.9430    -1.4840 h1         1 NI7       0.057200
@<TRIPOS>BOND
     1     1     2 1
     2     1    16 1
     3     1    27 1
     4     2     3 1
     5     2    25 1
     6     3     4 1
     7     3    12 1
     8     4     5 1
     9     5     6 ar
    10     5    11 ar
    11     6     7 ar
    12     7     8 1
    13     7     9 ar
    14     9    10 ar
    15    10    11 ar
    16    12    13 2
    17    12    14 1
    18    14    15 2
    19    14    16 1
    20    16    17 1
    21    17    18 1
    22    18    19 ar
    23    18    24 ar
    24    19    20 ar
    25    20    21 1
    26    20    22 ar
    27    22    23 ar
    28    23    24 ar
    29    25    26 1
    30    26    27 1
    31     1    28 1
    32     2    29 1
    33     4    30 1
    34     4    31 1
    35     6    32 1
    36     8    33 1
    37     9    34 1
    38    10    35 1
    39    11    36 1
    40    17    37 1
    41    17    38 1
    42    19    39 1
    43    21    40 1
    44    22    41 1
    45    23    42 1
    46    24    43 1
    47    25    44 1
    48    25    45 1
    49    26    46 1
    50    27    47 1
    51    27    48 1
@<TRIPOS>SUBSTRUCTURE
     1 NI7         1 TEMP              0 ****  ****    0 ROOT
