@<TRIPOS>MOLECULE
molecule
   54    57     1     0     0
SMALL
bcc


@<TRIPOS>ATOM
      1 C1           0.0000     0.0000     0.0000 c3         1 NI8       0.068200
      2 C2           1.5560     0.0000     0.0000 c3         1 NI8       0.068200
      3 N3           1.9740     0.0000     1.3910 n          1 NI8      -0.485800
      4 C5           3.0420    -0.8670     1.8920 c3         1 NI8       0.163300
      5 C6           4.3640    -0.1530     1.7770 ca         1 NI8      -0.124300
      6 C7           4.8220     0.6250     2.8230 ca         1 NI8      -0.080000
      7 C8           6.0350     1.2800     2.7180 ca         1 NI8      -0.086300
      8 C9           6.5340     2.1300     3.8570 c3         1 NI8       0.187200
      9 C10          6.7910     1.1550     1.5660 ca         1 NI8      -0.099000
     10 C11          6.3330     0.3750     0.5200 ca         1 NI8      -0.135500
     11 C12          5.1220    -0.2830     0.6270 ca         1 NI8      -0.114000
     12 C13          1.2950     0.8710     2.1980 c          1 NI8       0.643000
     13 O14          1.5320     0.9280     3.3860 o          1 NI8      -0.581000
     14 C15          0.2490     1.7570     1.5800 c          1 NI8       0.643000
     15 O16          0.0100     2.8520     2.0440 o          1 NI8      -0.581000
     16 N17         -0.4250     1.3000     0.4810 n          1 NI8      -0.485800
     17 C18         -1.4960     2.0670    -0.1620 c3         1 NI8       0.163300
     18 C19         -2.8190     1.7050     0.4640 ca         1 NI8      -0.124300
     19 C20         -3.2830     2.4120     1.5570 ca         1 NI8      -0.080000
     20 C21         -4.4960     2.0800     2.1300 ca         1 NI8      -0.086300
     21 C22         -5.0020     2.8520     3.3230 c3         1 NI8       0.187200
     22 C23         -5.2450     1.0400     1.6120 ca         1 NI8      -0.099000
     23 C24         -4.7800     0.3330     0.5180 ca         1 NI8      -0.135500
     24 C25         -3.5700     0.6680    -0.0590 ca         1 NI8      -0.114000
     25 C26          1.8340    -1.2650    -0.8140 c3         1 NI8       0.144300
     26 N27          0.8230    -1.2020    -1.9080 n7         1 NI8      -0.798200
     27 C28         -0.3180    -0.3720    -1.4420 c3         1 NI8       0.144300
     28 O29         -5.7880     3.9580     2.8750 oh         1 NI8      -0.605800
     29 O30          7.3170     1.3280     4.7430 oh         1 NI8      -0.605800
     30 H1          -0.3650    -0.7730     0.6660 h1         1 NI8       0.075200
     31 H2           1.9350     0.8760    -0.5130 h1         1 NI8       0.075200
     32 H5           3.0720    -1.7780     1.3070 h1         1 NI8       0.067700
     33 H5A          2.8520    -1.1110     2.9310 h1         1 NI8       0.067700
     34 H7           4.2490     0.6910     3.7400 ha         1 NI8       0.152500
     35 H9           7.1440     2.9360     3.4670 h1         1 NI8       0.028950
     36 H9A          5.6900     2.5440     4.3960 h1         1 NI8       0.028950
     37 H10          7.7400     1.6700     1.4820 ha         1 NI8       0.133500
     38 H11          6.9250     0.2760    -0.3810 ha         1 NI8       0.130500
     39 H12          4.7630    -0.8940    -0.1920 ha         1 NI8       0.122500
     40 H18         -1.5220     1.8340    -1.2200 h1         1 NI8       0.067700
     41 H18A        -1.3120     3.1260    -0.0300 h1         1 NI8       0.067700
     42 H20         -2.7160     3.2530     1.9390 ha         1 NI8       0.152500
     43 H22         -5.6110     2.2030     3.9410 h1         1 NI8       0.028950
     44 H22A        -4.1610     3.2160     3.9000 h1         1 NI8       0.028950
     45 H23         -6.1950     0.7780     2.0620 ha         1 NI8       0.133500
     46 H24         -5.3680    -0.4810     0.1100 ha         1 NI8       0.130500
     47 H25         -3.2060     0.1140    -0.9150 ha         1 NI8       0.122500
     48 H26          1.6830    -2.1490    -0.2070 h1         1 NI8       0.057450
     49 H26A         2.8370    -1.2410    -1.2230 h1         1 NI8       0.057450
     50 HN27         0.5000    -2.1260    -2.1180 hn         1 NI8       0.357800
     51 H28         -1.2370    -0.9440    -1.4840 h1         1 NI8       0.057450
     52 H28A        -0.4000     0.5230    -2.0470 h1         1 NI8       0.057450
     53 HO29        -6.1060     4.4400     3.6200 ho         1 NI8       0.402000
     54 HO30         7.6300     1.8600     5.4560 ho         1 NI8       0.402000
@<TRIPOS>BOND
     1     1     2 1
     2     1    16 1
     3     1    27 1
     4     2     3 1
     5     2    25 1
     6     3     4 1
     7     3    12 1
     8     4     5 1
     9     5     6 ar
    10     5    11 ar
    11     6     7 ar
    12     7     8 1
    13     7     9 ar
    14     8    29 1
    15     9    10 ar
    16    10    11 ar
    17    12    13 2
    18    12    14 1
    19    14    15 2
    20    14    16 1
    21    16    17 1
    22    17    18 1
    23    18    19 ar
    24    18    24 ar
    25    19    20 ar
    26    20    21 1
    27    20    22 ar
    28    21    28 1
    29    22    23 ar
    30    23    24 ar
    31    25    26 1
    32    26    27 1
    33     1    30 1
    34     2    31 1
    35     4    32 1
    36     4    33 1
    37     6    34 1
    38     8    35 1
    39     8    36 1
    40     9    37 1
    41    10    38 1
    42    11    39 1
    43    17    40 1
    44    17    41 1
    45    19    42 1
    46    21    43 1
    47    21    44 1
    48    22    45 1
    49    23    46 1
    50    24    47 1
    51    25    48 1
    52    25    49 1
    53    26    50 1
    54    27    51 1
    55    27    52 1
    56    28    53 1
    57    29    54 1
@<TRIPOS>SUBSTRUCTURE
     1 NI8         1 TEMP              0 ****  ****    0 ROOT
