@<TRIPOS>MOLECULE
NI9
   25    23     1     0     0
SMALL
bcc


@<TRIPOS>ATOM
      1 C1         -0.3350   -0.1000   -0.0310 c1        1 NI9     -0.143000
      2 O1         -3.1270   -1.5100    0.6030 o         1 NI9     -1.180833
      3 O2         -0.3990    0.4750   -1.1380 o         1 NI9     -0.480000
      4 C2          0.9900    0.3080    0.7440 c3        1 NI9     -0.235000
      5 O3         -1.5200   -0.8000    2.4360 o         1 NI9     -1.180833
      6 C3         -0.1990    2.0970    1.8190 c2        1 NI9     -0.156000
      7 P1          0.2170    2.3200   -2.5040 p3        1 NI9      2.512000
      8 P2         -1.7720   -1.5960    1.1950 p3        1 NI9      2.512000
      9 O4         -1.0270    2.6560   -3.2310 o         1 NI9     -1.180833
     10 O5         -1.0200   -2.8610    1.0130 o         1 NI9     -1.180833
     11 O6          0.5700    3.0900   -1.2880 o         1 NI9     -1.180833
     12 O7          1.3000    1.6680   -3.2750 o         1 NI9     -1.180833
     13 N           0.6810    0.9570    2.0510 n4        1 NI9      0.088000
     14 C4          2.5350    0.6550    3.9430 c1        1 NI9     -0.189000
     15 C5          1.9170    1.4200    2.7450 c3        1 NI9     -0.247000
     16 C6          1.8920    1.8190    4.1570 c2        1 NI9     -0.514000
     17 C7         -1.3970    2.1890    2.4410 c2        1 NI9     -0.032000
     18 HO2         0.1800    2.8170    1.0600 hx        1 NI9      0.222000
     19 H21         1.6280    1.0100    0.1440 hx        1 NI9      0.099000
     20 H22         1.5740   -0.6250    0.9610 hx        1 NI9      0.099000
     21 H3          0.1760    0.2490    2.6320 hn        1 NI9      0.284000
     22 H4         -1.8360    1.3800    3.0600 h4        1 NI9      0.199000
     23 H5          1.5210    2.6100    4.7660 ha        1 NI9      0.119000
     24 H6          2.5370    1.9620    2.0030 hx        1 NI9      0.099000
     25 F          -2.1930    3.2740    2.2900 f         1 NI9     -0.151000
@<TRIPOS>BOND
     1    1    3 1   
     2    1    4 1   
     3    2    8 1   
     4    4   13 1   
     5    4   19 1   
     6    4   20 1   
     7    5    8 1   
     8    6   13 1   
     9    6   17 1   
    10    6   18 1   
    11    7    9 1   
    12    7   11 1   
    13    7   12 1   
    14    8   10 1   
    15   13   15 1   
    16   13   21 1   
    17   14   15 1   
    18   14   16 1   
    19   15   16 1   
    20   15   24 1   
    21   16   23 1   
    22   17   22 1   
    23   17   25 1   
@<TRIPOS>SUBSTRUCTURE
     1 NI9         1 TEMP              0 ****  ****    0 ROOT
