@<TRIPOS>MOLECULE
molecule
   25    25     1     0     0
SMALL
bcc


@<TRIPOS>ATOM
      1 C1           0.0000     0.0000     0.0000 c3         1 NI9       0.032400
      2 O1          -1.9190    -1.8550    -0.4700 o          1 NI9      -0.851333
      3 O2           1.4380     0.0000     0.0000 oh         1 NI9      -0.669800
      4 C2          -0.3780     0.0000     1.4920 c3         1 NI9       0.027300
      5 O3           0.3890    -2.6820     0.1350 o          1 NI9      -0.851333
      6 C3          -0.6250     2.2680     2.2740 ca         1 NI9      -0.030300
      7 P1          -0.3590     1.6010    -0.8060 p5         1 NI9       0.993700
      8 P2          -0.3580    -1.6020    -0.8060 p5         1 NI9       0.993700
      9 O4          -1.9720     1.6920    -0.7810 o          1 NI9      -0.851333
     10 O5          -0.0130    -1.6690    -2.2640 o          1 NI9      -0.851333
     11 O6           0.3630     2.7800    -0.2230 o          1 NI9      -0.851333
     12 O7          -0.0420     1.3210    -2.3670 o          1 NI9      -0.851333
     13 N            0.1420     1.1800     2.2160 na         1 NI9       0.062900
     14 C4           1.0920     3.3440     3.5450 ca         1 NI9      -0.229000
     15 C5           1.3470     1.0930     2.7720 ca         1 NI9      -0.053300
     16 C6           1.8600     2.1860     3.4590 ca         1 NI9      -0.175000
     17 C7          -0.1640     3.3890     2.9480 ca         1 NI9       0.110900
     18 HO2          1.7520    -0.1650    -0.8730 ho         1 NI9       0.425000
     19 H21         -1.4580    -0.0140     1.5780 h1         1 NI9       0.087200
     20 H22          0.0210    -0.8950     1.9530 h1         1 NI9       0.087200
     21 H3          -1.6540     2.2240     1.9370 h4         1 NI9       0.214000
     22 H4           1.4720     4.2080     4.0760 ha         1 NI9       0.100000
     23 H5           1.9230     0.1800     2.6890 h4         1 NI9       0.181000
     24 H6           2.8390     2.1380     3.9190 ha         1 NI9       0.107000
     25 F           -0.9130     4.4960     3.0220 f          1 NI9      -0.157900
@<TRIPOS>BOND
     1     1     8 1
     2     1     3 1
     3     1     4 1
     4     1     7 1
     5     2     8 1
     6     3    18 1
     7     4    13 1
     8     4    19 1
     9     4    20 1
    10     5     8 1
    11     6    13 1
    12     6    17 ar
    13     6    21 1
    14     7    11 1
    15     7    12 1
    16     7     9 1
    17     8    10 1
    18    13    15 2
    19    25    17 1
    20    14    17 ar
    21    14    16 ar
    22    14    22 1
    23    15    16 ar
    24    15    23 1
    25    16    24 1
@<TRIPOS>SUBSTRUCTURE
     1 NI9         1 TEMP              0 ****  ****    0 ROOT
