@<TRIPOS>MOLECULE
NIA
   33    34     1     0     0
SMALL
bcc


@<TRIPOS>ATOM
      1 O8           0.0000     0.0000     0.0000 o          1 NIA      -0.757167
      2 P            1.6100     0.0000     0.0000 p5         1 NIA       0.659900
      3 O6           2.1050     0.0000     1.3950 o          1 NIA      -0.757167
      4 O7           2.1470    -1.3160    -0.7590 o          1 NIA      -0.757167
      5 O5'          2.1470     1.3140    -0.7600 os         1 NIA      -0.444200
      6 C5'          1.7400     2.4380     0.0220 c3         1 NIA       0.230400
      7 C4'          2.2210     3.7270    -0.6480 c3         1 NIA       0.144100
      8 C3'          1.8350     4.9560     0.2040 c3         1 NIA       0.131100
      9 O3'          2.9420     5.3810     1.0010 oh         1 NIA      -0.563800
     10 C2'          1.4700     6.0380    -0.8400 c3         1 NIA       0.113100
     11 O2'          2.3390     7.1650    -0.7180 oh         1 NIA      -0.566800
     12 O4'          1.5420     3.9220    -1.9080 os         1 NIA      -0.346600
     13 C1'          1.6770     5.3310    -2.1980 c3         1 NIA       0.115800
     14 N1           0.6510     5.7540    -3.1550 na         1 NIA       0.269100
     15 C5           0.7040     6.8530    -3.9710 cc         1 NIA      -0.170000
     16 N6           1.7410     7.7830    -4.0500 nv         1 NIA      -0.437200
     17 C4          -0.4480     6.8660    -4.6820 cd         1 NIA      -0.144200
     18 N7          -0.8340     7.8760    -5.6940 no         1 NIA       1.004500
     19 O72         -0.0870     8.8050    -5.9430 o          1 NIA      -0.488500
     20 O71         -1.8980     7.7780    -6.2780 o          1 NIA      -0.488500
     21 N3          -1.1770     5.8000    -4.3150 nd         1 NIA      -0.551000
     22 C2          -0.5330     5.1290    -3.4020 cc         1 NIA       0.274400
     23 H5'1         2.1720     2.3630     1.0130 h1         1 NIA       0.013700
     24 H5'2         0.6600     2.4520     0.0980 h1         1 NIA       0.013700
     25 H4'          3.2930     3.7000    -0.8010 h1         1 NIA       0.032700
     26 H3'          0.9770     4.7290     0.8260 h1         1 NIA       0.027700
     27 H1           2.6730     5.4490     1.9020 ho         1 NIA       0.379000
     28 H2'          0.4350     6.3370    -0.7260 h1         1 NIA       0.008700
     29 H2           1.8650     7.8880    -0.3420 ho         1 NIA       0.376000
     30 H1'          2.6680     5.5400    -2.5820 h2         1 NIA       0.042700
     31 HN61         2.6920     7.4800    -3.9690 hn         1 NIA       0.282800
     32 HN62         1.5380     8.7430    -4.2430 hn         1 NIA       0.282800
     33 H3          -0.8800     4.2230    -2.9220 h5         1 NIA       0.068100
@<TRIPOS>BOND
     1     1     2 1   
     2     2     3 1   
     3     2     4 1   
     4     2     5 1   
     5     5     6 1   
     6     6     7 1   
     7     6    23 1   
     8     6    24 1   
     9     7     8 1   
    10     7    12 1   
    11     7    25 1   
    12     8     9 1   
    13     8    10 1   
    14     8    26 1   
    15     9    27 1   
    16    10    11 1   
    17    10    13 1   
    18    10    28 1   
    19    11    29 1   
    20    12    13 1   
    21    13    14 1   
    22    13    30 1   
    23    14    15 1   
    24    14    22 1   
    25    15    16 1   
    26    15    17 2   
    27    16    31 1   
    28    16    32 1   
    29    17    18 1   
    30    17    21 1   
    31    18    19 1   
    32    18    20 1   
    33    21    22 2   
    34    22    33 1   
@<TRIPOS>SUBSTRUCTURE
     1 NIA         1 TEMP              0 ****  ****    0 ROOT
