@<TRIPOS>MOLECULE
molecule
   18    17     1     0     0
SMALL
bcc


@<TRIPOS>ATOM
      1 C1           0.0000     0.0000     0.0000 c          1 NIC       0.862600
      2 O1          -0.6030    -0.9480    -0.4430 o          1 NIC      -0.840800
      3 O2          -0.6720     1.0530     0.4920 o          1 NIC      -0.840800
      4 C2           1.5070     0.0000     0.0000 c3         1 NIC       0.025100
      5 C3           2.0170     0.0000     1.4420 c3         1 NIC      -0.014000
      6 O7           1.9840    -1.1660    -0.6740 oh         1 NIC      -0.581800
      7 C4           3.5470     0.0000     1.4430 c3         1 NIC      -0.197400
      8 C5           4.0500     0.1240     2.8580 c          1 NIC       0.882600
      9 O3           3.2640     0.2040     3.7730 o          1 NIC      -0.856300
     10 O4           5.3690     0.1460     3.1030 o          1 NIC      -0.856300
     11 N6           1.5300    -1.1970     2.1330 no         1 NIC       0.273300
     12 O5           1.8240    -2.3030     1.7160 o          1 NIC      -0.239500
     13 O6           0.8290    -1.0860     3.1230 o          1 NIC      -0.239500
     14 H2           1.8680     0.8850    -0.5100 h1         1 NIC       0.025700
     15 H3           1.6560     0.8840     1.9530 h1         1 NIC       0.124700
     16 HO7          2.0470    -0.9910    -1.5990 ho         1 NIC       0.369000
     17 H41          3.9090    -0.9250     1.0110 hc         1 NIC       0.052200
     18 H42          3.9080     0.8370     0.8570 hc         1 NIC       0.052200
@<TRIPOS>BOND
     1     1     2 1
     2     1     3 1
     3     1     4 1
     4     4     5 1
     5     4     6 1
     6     4    14 1
     7     5     7 1
     8     5    11 1
     9     5    15 1
    10     6    16 1
    11     7     8 1
    12     7    17 1
    13     7    18 1
    14     8     9 1
    15     8    10 1
    16    11    12 1
    17    11    13 1
@<TRIPOS>SUBSTRUCTURE
     1 NIC         1 TEMP              0 ****  ****    0 ROOT
