@<TRIPOS>MOLECULE
NID
   18    19     1     0     0
SMALL
bcc


@<TRIPOS>ATOM
      1 C2           0.0000     0.0000     0.0000 ca         1 NID      -0.426200
      2 C7           1.3860     0.0000     0.0000 ca         1 NID       0.015200
      3 C1           2.3850     0.0000     1.0920 cc         1 NID      -0.014200
      4 C9           3.6240    -0.0110     0.5790 cd         1 NID      -0.202200
      5 C8           3.5300    -0.0240    -0.8920 c          1 NID       0.614900
      6 O1           4.4550    -0.0350    -1.6790 o          1 NID      -0.500100
      7 C6           2.0780    -0.0190    -1.2250 ca         1 NID      -0.219600
      8 C5           1.3800    -0.0280    -2.4150 ca         1 NID       0.036000
      9 C4          -0.0130    -0.0210    -2.4020 ca         1 NID      -0.127000
     10 C3          -0.6950    -0.0070    -1.2050 ca         1 NID       0.004000
     11 N           -0.7410     0.0150     1.2820 no         1 NID       1.049200
     12 ON1         -1.9590     0.0200     1.2810 o          1 NID      -0.449000
     13 ON2         -0.1330     0.0170     2.3360 o          1 NID      -0.449000
     14 H1           2.1840     0.5380     2.0100 ha         1 NID       0.153000
     15 H9           4.4110    -0.5640     1.0760 ha         1 NID       0.145000
     16 H5           1.9140    -0.0390    -3.3570 ha         1 NID       0.117000
     17 H4          -0.5620    -0.0270    -3.3360 ha         1 NID       0.120000
     18 H3          -1.7780    -0.0030    -1.2020 ha         1 NID       0.135000
@<TRIPOS>BOND
     1     1     2 ar  
     2     1    10 ar  
     3     1    11 1   
     4     2     3 1   
     5     2     7 ar  
     6     3     4 2   
     7     3    14 1   
     8     4     5 1   
     9     4    15 1   
    10     5     6 2   
    11     5     7 1   
    12     7     8 ar  
    13     8     9 ar  
    14     8    16 1   
    15     9    10 ar  
    16     9    17 1   
    17    10    18 1   
    18    11    12 1   
    19    11    13 1   
@<TRIPOS>SUBSTRUCTURE
     1 NID         1 TEMP              0 ****  ****    0 ROOT
