@<TRIPOS>MOLECULE
NIE
   10     9     1     0     0
SMALL
bcc


@<TRIPOS>ATOM
      1 N3           0.0000     0.0000     0.0000 no         1 NIE       0.950300
      2 C1           1.9750    -1.0210     1.0190 c3         1 NIE       0.018900
      3 C2           1.4650     0.0000     0.0000 c3         1 NIE      -0.284700
      4 O4          -0.6090     0.0000     1.0550 o          1 NIE      -0.441000
      5 O5          -0.6090     0.0060    -1.0540 o          1 NIE      -0.441000
      6 H1           1.7680    -0.6650     2.0210 hc         1 NIE       0.021033
      7 H1A          1.4750    -1.9690     0.8620 hc         1 NIE       0.021033
      8 H1B          3.0440    -1.1510     0.8960 hc         1 NIE       0.021033
      9 H2           1.8270    -0.2640    -0.9870 h1         1 NIE       0.067700
     10 H2A          1.8270     0.9860     0.2650 h1         1 NIE       0.067700
@<TRIPOS>BOND
     1     1     3 1   
     2     1     4 1   
     3     1     5 1   
     4     2     3 1   
     5     2     6 1   
     6     2     7 1   
     7     2     8 1   
     8     3     9 1   
     9     3    10 1   
@<TRIPOS>SUBSTRUCTURE
     1 NIE         1 TEMP              0 ****  ****    0 ROOT
