@<TRIPOS>MOLECULE
molecule
   33    35     1     0     0
SMALL
bcc


@<TRIPOS>ATOM
      1 C1           0.0000     0.0000     0.0000 cc         1 NIF       0.468700
      2 N1           1.2870     0.0000     0.0000 n2         1 NIF      -0.435800
      3 O1           4.0730     0.0000     0.4310 o          1 NIF      -0.612500
      4 S1          -0.4840     0.0010     1.7040 ss         1 NIF      -0.256300
      5 C2           1.1790     0.0010     2.3150 cc         1 NIF       0.218600
      6 N2           1.9720     0.0000     1.2100 n          1 NIF       0.050300
      7 C3           2.9760     0.0010     3.7690 cd         1 NIF       0.461600
      8 N3           1.6610     0.0010     3.5410 nd         1 NIF      -0.388600
      9 C4           3.8450     0.0010     2.6830 cc         1 NIF      -0.414200
     10 N4           3.9080     0.8510     7.6780 n7         1 NIF      -0.819200
     11 C5           3.3230     0.0000     1.3950 c          1 NIF       0.614500
     12 N5           3.4650     0.0010     5.0620 nh         1 NIF      -0.712400
     13 C6          -0.9080     0.0050    -1.2030 c3         1 NIF      -0.092700
     14 C7          -0.0640     0.0100    -2.4790 c3         1 NIF      -0.089100
     15 C8           4.7430     0.6550     5.3850 c3         1 NIF       0.244800
     16 C9           4.5200     1.5980     6.5720 c3         1 NIF       0.136800
     17 C10          2.5800     0.3420     7.3070 c3         1 NIF       0.136800
     18 C11          2.7240    -0.6530     6.1500 c3         1 NIF       0.244800
     19 H4           4.9050    -0.1560     2.8380 ha         1 NIF       0.175000
     20 H6          -1.5330    -0.8800    -1.1870 hc         1 NIF       0.069700
     21 H6A         -1.5330     0.8890    -1.1800 hc         1 NIF       0.069700
     22 H7           0.5610     0.8940    -2.4960 hc         1 NIF       0.051033
     23 H7A          0.5610    -0.8750    -2.5030 hc         1 NIF       0.051033
     24 H7B         -0.7170     0.0130    -3.3440 hc         1 NIF       0.051033
     25 H8           5.0870     1.2230     4.5290 h1         1 NIF       0.062200
     26 H8A          5.4780    -0.0950     5.6510 h1         1 NIF       0.062200
     27 H9           3.8610     2.4040     6.2730 h1         1 NIF       0.041950
     28 H9A          5.4720     2.0030     6.8940 h1         1 NIF       0.041950
     29 H10          1.9510     1.1680     6.9970 h1         1 NIF       0.041950
     30 H10A         2.1350    -0.1580     8.1590 h1         1 NIF       0.041950
     31 H11          1.7420    -0.9430     5.7970 h1         1 NIF       0.062200
     32 H11A         3.2690    -1.5260     6.4880 h1         1 NIF       0.062200
     33 HN4          3.8250     1.4480     8.4780 hn         1 NIF       0.357800
@<TRIPOS>BOND
     1     1     2 2
     2     1     4 1
     3     1    13 1
     4     2     6 1
     5     3    11 2
     6     4     5 1
     7     5     6 1
     8     5     8 2
     9     6    11 1
    10     7     8 1
    11     7     9 2
    12     7    12 1
    13     9    11 1
    14    10    16 1
    15    10    17 1
    16    12    15 1
    17    12    18 1
    18    13    14 1
    19    15    16 1
    20    17    18 1
    21     9    19 1
    22    10    33 1
    23    13    20 1
    24    13    21 1
    25    14    22 1
    26    14    23 1
    27    14    24 1
    28    15    25 1
    29    15    26 1
    30    16    27 1
    31    16    28 1
    32    17    29 1
    33    17    30 1
    34    18    31 1
    35    18    32 1
@<TRIPOS>SUBSTRUCTURE
     1 NIF         1 TEMP              0 ****  ****    0 ROOT
