@<TRIPOS>MOLECULE
NIG
   20    19     1     0     0
SMALL
bcc


@<TRIPOS>ATOM
      1 O1           0.0000     0.0000     0.0000 o          1 NIG      -0.906800
      2 NF           0.8320    -2.2970    -2.3180 n2         1 NIG      -0.890100
      3 N            1.0080     0.0010    -2.4190 nu         1 NIG      -0.465200
      4 CA           1.9610     0.0010    -1.3050 c3         1 NIG       0.003500
      5 CB           2.8410     1.2500    -1.3870 c3         1 NIG      -0.006400
      6 CG           3.6980     1.1900    -2.6530 c3         1 NIG      -0.142400
      7 CD           4.5630     2.4200    -2.7330 c          1 NIG       0.983600
      8 OE1          4.5020     3.2600    -1.8650 o          1 NIG      -0.922300
      9 OE2          5.4030     2.5840    -3.7660 o          1 NIG      -0.922300
     10 C            1.2080     0.0000     0.0000 c          1 NIG       0.974600
     11 O2           1.8800     0.0000     1.1620 o          1 NIG      -0.906800
     12 HNF          1.4820    -2.2970    -1.5570 hn         1 NIG       0.342400
     13 HF          -0.2190    -1.1820    -3.6960 h5         1 NIG      -0.044200
     14 HN           0.7090     0.8670    -2.8210 hn         1 NIG       0.275800
     15 HA           2.5840    -0.8830    -1.3630 h1         1 NIG       0.033700
     16 HB1          3.4850     1.2960    -0.5170 hc         1 NIG       0.036200
     17 HB2          2.2130     2.1330    -1.4180 hc         1 NIG       0.036200
     18 HG1          3.0540     1.1440    -3.5230 hc         1 NIG      -0.000300
     19 HG2          4.3260     0.3080    -2.6220 hc         1 NIG      -0.000300
     20 CF           0.4850    -1.1810    -2.8720 c2         1 NIG       0.520100
@<TRIPOS>BOND
     1     1    10 1   
     2     2    12 1   
     3     2    20 2   
     4     3     4 1   
     5     3    14 1   
     6     3    20 1   
     7     4     5 1   
     8     4    10 1   
     9     4    15 1   
    10     5     6 1   
    11     5    16 1   
    12     5    17 1   
    13     6     7 1   
    14     6    18 1   
    15     6    19 1   
    16     7     8 1   
    17     7     9 1   
    18    10    11 1   
    19    13    20 1   
@<TRIPOS>SUBSTRUCTURE
     1 NIG         1 TEMP              0 ****  ****    0 ROOT
