@<TRIPOS>MOLECULE
NIH
   38    39     1     0     0
SMALL
bcc


@<TRIPOS>ATOM
      1 N1         -0.0400   -0.0410    0.0120 n         1 NIH     -0.484400
      2 C2          1.3630   -0.0350    0.0100 cc        1 NIH      0.762800
      3 N3          2.0930   -0.0380    1.2080 nd        1 NIH     -0.664300
      4 C4          1.4200   -0.0470    2.3490 cd        1 NIH      0.297600
      5 C5          0.0030   -0.0540    2.4530 cc        1 NIH     -0.490400
      6 C6         -0.7670   -0.0510    1.2240 c         1 NIH      0.747700
      7 C7         -0.5740   -0.0640    3.7650 c         1 NIH      0.621300
      8 N8         -2.1310   -0.0710    3.7790 n4        1 NIH     -0.460300
      9 O9         -0.0340   -0.0670    4.8580 o         1 NIH     -0.414100
     10 O10        -2.0140   -0.0570    1.1410 o         1 NIH     -0.673500
     11 O11        -2.5520   -0.0810    5.0610 oh        1 NIH     -0.341300
     12 N12         2.0300   -0.0260   -1.1810 nh        1 NIH     -0.780200
     13 C13         3.4850   -0.0190   -1.2580 c3        1 NIH      0.264100
     14 C14         3.9560   -0.0090   -2.6790 ca        1 NIH     -0.161300
     15 C15         4.2040    1.2050   -3.3260 ca        1 NIH     -0.035000
     16 C16         4.6770    1.2060   -4.6400 ca        1 NIH     -0.172300
     17 C17         4.9100    0.0070   -5.3160 ca        1 NIH     -0.006000
     18 C18         4.6620   -1.2010   -4.6600 ca        1 NIH     -0.172300
     19 C19         4.1890   -1.2160   -3.3470 ca        1 NIH     -0.035000
     20 C20         4.9210   -2.5270   -5.3750 c3        1 NIH      0.691200
     21 F21         4.8730   -2.4500   -6.7430 f         1 NIH     -0.222633
     22 F22         6.1480   -3.0740   -5.0960 f         1 NIH     -0.222633
     23 F23         4.0220   -3.5130   -5.0490 f         1 NIH     -0.222633
     24 C24         4.9540    2.5410   -5.3320 c3        1 NIH      0.691200
     25 F25         6.1900    3.0650   -5.0470 f         1 NIH     -0.222633
     26 F26         4.9010    2.4880   -6.7010 f         1 NIH     -0.222633
     27 F27         4.0700    3.5340   -4.9870 f         1 NIH     -0.222633
     28 H1         -0.5700   -0.0390   -0.8380 hn        1 NIH      0.362500
     29 H4          2.0460   -0.0490    3.2720 h4        1 NIH      0.213000
     30 H8         -2.4640    0.7680    3.2690 hn        1 NIH      0.468800
     31 H11        -3.5350   -0.0850    5.0700 ho        1 NIH      0.460000
     32 H12         1.5230   -0.0230   -2.0420 hn        1 NIH      0.468800
     33 H131        3.8810   -0.9340   -0.7260 h1        1 NIH      0.094700
     34 H132        3.8730    0.8940   -0.7160 h1        1 NIH      0.094700
     35 H15         4.0330    2.1640   -2.8080 ha        1 NIH      0.164000
     36 H17         5.2800    0.0130   -6.3580 ha        1 NIH      0.189000
     37 H19         4.0060   -2.1820   -2.8440 ha        1 NIH      0.164000
     38 H82        -2.4570   -0.9080    3.2590 hn        1 NIH      0.468800
@<TRIPOS>BOND
     1    1    2 1   
     2    1    6 1   
     3    1   28 1   
     4    2    3 2   
     5    2   12 1   
     6    3    4 1   
     7    4    5 2   
     8    4   29 1   
     9    5    6 1   
    10    5    7 1   
    11    6   10 2   
    12    7    8 1   
    13    7    9 2   
    14    8   11 1   
    15    8   30 1   
    16    8   38 1   
    17   11   31 1   
    18   12   13 1   
    19   12   32 1   
    20   13   14 1   
    21   13   33 1   
    22   13   34 1   
    23   14   15 ar  
    24   14   19 ar  
    25   15   16 ar  
    26   15   35 1   
    27   16   17 ar  
    28   16   24 1   
    29   17   18 ar  
    30   17   36 1   
    31   18   19 ar  
    32   18   20 1   
    33   19   37 1   
    34   20   21 1   
    35   20   22 1   
    36   20   23 1   
    37   24   25 1   
    38   24   26 1   
    39   24   27 1   
@<TRIPOS>SUBSTRUCTURE
     1 NIH         1 TEMP              0 ****  ****    0 ROOT
