@<TRIPOS>MOLECULE
molecule
   84    87     1     0     0
SMALL
bcc


@<TRIPOS>ATOM
      1 O6           0.0000     0.0000     0.0000 oh         1 NII      -0.608300
      2 C30          1.4290     0.0000     0.0000 c3         1 NII       0.144400
      3 C29          1.9390     0.0000     1.4420 c3         1 NII      -0.096400
      4 C28          3.4690     0.0000     1.4410 c3         1 NII       0.220800
      5 N3           3.9580     0.0010     2.8220 nu         1 NII      -0.794600
      6 C9           5.3200     0.0010     3.0750 ca         1 NII       0.257600
      7 C8           6.2240    -0.1280     2.0100 ca         1 NII      -0.110000
      8 C7           7.5880    -0.1300     2.2400 ca         1 NII      -0.095600
      9 C14          8.5710    -0.2620     1.1470 c          1 NII       0.720100
     10 O1           8.1880    -0.3760    -0.0010 o          1 NII      -0.607500
     11 N2           9.8900    -0.2590     1.4160 n          1 NII      -0.466400
     12 C18         10.8350    -0.3920     0.3050 c3         1 NII       0.091000
     13 C19         11.1900     0.9950    -0.2320 c3         1 NII      -0.099400
     14 C20         12.1770     0.8550    -1.3930 c3         1 NII       0.166300
     15 N5          12.5180     2.1870    -1.9090 n3         1 NII      -0.731100
     16 C24         13.2630     2.9650    -0.9100 c3         1 NII       0.150350
     17 C23         13.2710     2.0890    -3.1660 c3         1 NII       0.150350
     18 C13         10.3760    -0.1360     2.6660 c          1 NII       0.743100
     19 O4          11.5780    -0.1390     2.8490 o          1 NII      -0.647500
     20 C10          5.7810     0.1350     4.3850 ca         1 NII      -0.240100
     21 C11          4.8690     0.2780     5.5280 c          1 NII       0.743100
     22 O2           3.6660     0.2810     5.3460 o          1 NII      -0.647500
     23 N1           5.3550     0.4050     6.7780 n          1 NII      -0.466400
     24 C15          4.4100     0.5450     7.8880 c3         1 NII       0.091000
     25 C16          4.0530    -0.8390     8.4330 c3         1 NII      -0.099400
     26 C17          3.0670    -0.6930     9.5930 c3         1 NII       0.166300
     27 N4           2.7250    -2.0220    10.1150 n3         1 NII      -0.731100
     28 C21          1.9710    -1.9150    11.3720 c3         1 NII       0.150350
     29 C22          1.9780    -2.8030     9.1180 c3         1 NII       0.150350
     30 C5           7.1730     0.1340     4.6310 ca         1 NII      -0.007000
     31 C6           7.6560     0.2700     5.9550 ca         1 NII      -0.095600
     32 C12          6.6750     0.4080     7.0470 c          1 NII       0.720100
     33 O3           7.0580     0.5270     8.1950 o          1 NII      -0.607500
     34 C4           8.0720     0.0000     3.5650 ca         1 NII      -0.007000
     35 C3           9.4640     0.0010     3.8090 ca         1 NII      -0.240100
     36 C2           9.9250     0.1310     5.1210 ca         1 NII       0.257600
     37 C1           9.0200     0.2680     6.1840 ca         1 NII      -0.110000
     38 N6          11.2870     0.1320     5.3730 nu         1 NII      -0.794600
     39 C25         11.7760     0.1470     6.7540 c3         1 NII       0.220800
     40 C26         13.3060     0.1460     6.7540 c3         1 NII      -0.096400
     41 C27         13.8170     0.1600     8.1960 c3         1 NII       0.144400
     42 O5          15.2450     0.1590     8.1940 oh         1 NII      -0.608300
     43 HO6         -0.3140     0.0000    -0.8890 ho         1 NII       0.406000
     44 H30          1.7900    -0.8840    -0.5110 h1         1 NII       0.022200
     45 H30A         1.7900     0.8840    -0.5110 h1         1 NII       0.022200
     46 H29          1.5790    -0.8850     1.9520 hc         1 NII       0.065700
     47 H29A         1.5780     0.8840     1.9530 hc         1 NII       0.065700
     48 H28          3.8300     0.8850     0.9300 h1         1 NII       0.043450
     49 H28A         3.8300    -0.8840     0.9310 h1         1 NII       0.043450
     50 HN3          3.3080    -0.0150     3.5820 hn         1 NII       0.489300
     51 H8           5.8500    -0.2270     0.9980 ha         1 NII       0.165000
     52 H18         10.3830    -0.9800    -0.4840 h1         1 NII       0.075200
     53 H18A        11.7340    -0.8860     0.6530 h1         1 NII       0.075200
     54 H19         10.2900     1.4880    -0.5800 hc         1 NII       0.061200
     55 H19A        11.6420     1.5830     0.5570 hc         1 NII       0.061200
     56 H20         11.7250     0.2670    -2.1830 h1         1 NII       0.034700
     57 H20A        13.0760     0.3620    -1.0450 h1         1 NII       0.034700
     58 H24         13.8780     2.2980    -0.3180 h1         1 NII       0.032450
     59 H24A        12.5660     3.4830    -0.2620 h1         1 NII       0.032450
     60 H24B        13.8940     3.6880    -1.4120 h1         1 NII       0.032450
     61 H23         12.6740     1.5670    -3.9050 h1         1 NII       0.032450
     62 H23A        13.5040     3.0830    -3.5270 h1         1 NII       0.032450
     63 H23B        14.1910     1.5430    -2.9940 h1         1 NII       0.032450
     64 H15          3.5110     1.0380     7.5370 h1         1 NII       0.075200
     65 H15A         4.8620     1.1370     8.6750 h1         1 NII       0.075200
     66 H16          4.9520    -1.3320     8.7830 hc         1 NII       0.061200
     67 H16A         3.6010    -1.4300     7.6460 hc         1 NII       0.061200
     68 H17          2.1680    -0.2000     9.2420 h1         1 NII       0.034700
     69 H17A         3.5190    -0.1010    10.3800 h1         1 NII       0.034700
     70 H21          1.7360    -2.9080    11.7370 h1         1 NII       0.032450
     71 H21A         2.5700    -1.3920    12.1080 h1         1 NII       0.032450
     72 H21B         1.0530    -1.3670    11.1980 h1         1 NII       0.032450
     73 H22          1.3450    -3.5220     9.6240 h1         1 NII       0.032450
     74 H22A         2.6750    -3.3250     8.4740 h1         1 NII       0.032450
     75 H22B         1.3650    -2.1370     8.5230 h1         1 NII       0.032450
     76 H1           9.3940     0.3750     7.1950 ha         1 NII       0.165000
     77 HN6         11.9360     0.1560     4.6120 hn         1 NII       0.489300
     78 H25         11.4140    -0.7320     7.2740 h1         1 NII       0.043450
     79 H25A        11.4150     1.0370     7.2550 h1         1 NII       0.043450
     80 H26         13.6670     1.0250     6.2340 hc         1 NII       0.065700
     81 H26A        13.6660    -0.7440     6.2520 hc         1 NII       0.065700
     82 H27         13.4560     1.0500     8.6980 h1         1 NII       0.022200
     83 H27A        13.4550    -0.7190     8.7160 h1         1 NII       0.022200
     84 HO5         15.5610     0.1680     9.0830 ho         1 NII       0.406000
@<TRIPOS>BOND
     1     1     2 1
     2     2     3 1
     3     3     4 1
     4     4     5 1
     5     5     6 1
     6     6     7 ar
     7     6    20 ar
     8     7     8 ar
     9     8     9 1
    10     8    34 ar
    11     9    10 2
    12     9    11 1
    13    11    12 1
    14    11    18 1
    15    12    13 1
    16    13    14 1
    17    14    15 1
    18    15    16 1
    19    15    17 1
    20    18    19 2
    21    18    35 1
    22    20    21 1
    23    20    30 ar
    24    21    22 2
    25    21    23 1
    26    23    24 1
    27    23    32 1
    28    24    25 1
    29    25    26 1
    30    26    27 1
    31    27    28 1
    32    27    29 1
    33    30    31 ar
    34    30    34 ar
    35    31    32 1
    36    31    37 ar
    37    32    33 2
    38    34    35 ar
    39    35    36 ar
    40    36    37 ar
    41    36    38 1
    42    38    39 1
    43    39    40 1
    44    40    41 1
    45    41    42 1
    46     1    43 1
    47     2    44 1
    48     2    45 1
    49     3    46 1
    50     3    47 1
    51     4    48 1
    52     4    49 1
    53     5    50 1
    54     7    51 1
    55    12    52 1
    56    12    53 1
    57    13    54 1
    58    13    55 1
    59    14    56 1
    60    14    57 1
    61    16    58 1
    62    16    59 1
    63    16    60 1
    64    17    61 1
    65    17    62 1
    66    17    63 1
    67    24    64 1
    68    24    65 1
    69    25    66 1
    70    25    67 1
    71    26    68 1
    72    26    69 1
    73    28    70 1
    74    28    71 1
    75    28    72 1
    76    29    73 1
    77    29    74 1
    78    29    75 1
    79    37    76 1
    80    38    77 1
    81    39    78 1
    82    39    79 1
    83    40    80 1
    84    40    81 1
    85    41    82 1
    86    41    83 1
    87    42    84 1
@<TRIPOS>SUBSTRUCTURE
     1 NII         1 TEMP              0 ****  ****    0 ROOT
