@<TRIPOS>MOLECULE
NII
   84    87     1     0     0
SMALL
bcc


@<TRIPOS>ATOM
      1 O6           0.0000     0.0000     0.0000 oh         1 NII      -0.591800
      2 C30          1.4290     0.0000     0.0000 c3         1 NII       0.231400
      3 C29          1.9390     0.0000     1.4420 c3         1 NII      -0.047400
      4 C28          3.4690     0.0000     1.4410 c3         1 NII       0.152800
      5 N3           3.9580     0.0010     2.8220 nu         1 NII      -0.407600
      6 C9           5.3200     0.0010     3.0750 ca         1 NII       0.122600
      7 C8           6.2240    -0.1280     2.0100 ca         1 NII      -0.087500
      8 C7           7.5880    -0.1300     2.2400 ca         1 NII      -0.106100
      9 C14          8.5710    -0.2620     1.1470 c          1 NII       0.645100
     10 O1           8.1880    -0.3760    -0.0010 o          1 NII      -0.648500
     11 N2           9.8900    -0.2590     1.4160 n          1 NII      -0.089900
     12 C18         10.8350    -0.3920     0.3050 c3         1 NII       0.022000
     13 C19         11.1900     0.9950    -0.2320 c3         1 NII      -0.053400
     14 C20         12.1770     0.8550    -1.3930 c3         1 NII       0.159800
     15 N5          12.5180     2.1870    -1.9090 n3         1 NII      -0.546600
     16 C24         13.2630     2.9650    -0.9100 c3         1 NII       0.181600
     17 C23         13.2710     2.0890    -3.1660 c3         1 NII       0.181600
     18 C13         10.3760    -0.1360     2.6660 c          1 NII       0.676600
     19 O4          11.5780    -0.1390     2.8490 o          1 NII      -0.690500
     20 C10          5.7810     0.1350     4.3850 ca         1 NII      -0.263600
     21 C11          4.8690     0.2780     5.5280 c          1 NII       0.676600
     22 O2           3.6660     0.2810     5.3460 o          1 NII      -0.690500
     23 N1           5.3550     0.4050     6.7780 n          1 NII      -0.089900
     24 C15          4.4100     0.5450     7.8880 c3         1 NII       0.022000
     25 C16          4.0530    -0.8390     8.4330 c3         1 NII      -0.053400
     26 C17          3.0670    -0.6930     9.5930 c3         1 NII       0.159800
     27 N4           2.7250    -2.0220    10.1150 n3         1 NII      -0.546600
     28 C21          1.9710    -1.9150    11.3720 c3         1 NII       0.181600
     29 C22          1.9780    -2.8030     9.1180 c3         1 NII       0.181600
     30 C5           7.1730     0.1340     4.6310 ca         1 NII       0.001000
     31 C6           7.6560     0.2700     5.9550 ca         1 NII      -0.106100
     32 C12          6.6750     0.4080     7.0470 c          1 NII       0.645100
     33 O3           7.0580     0.5270     8.1950 o          1 NII      -0.648500
     34 C4           8.0720     0.0000     3.5650 ca         1 NII       0.001000
     35 C3           9.4640     0.0010     3.8090 ca         1 NII      -0.263600
     36 C2           9.9250     0.1310     5.1210 ca         1 NII       0.122600
     37 C1           9.0200     0.2680     6.1840 ca         1 NII      -0.087500
     38 N6          11.2870     0.1320     5.3730 nu         1 NII      -0.407600
     39 C25         11.7760     0.1470     6.7540 c3         1 NII       0.152800
     40 C26         13.3060     0.1460     6.7540 c3         1 NII      -0.047400
     41 C27         13.8170     0.1600     8.1960 c3         1 NII       0.231400
     42 O5          15.2450     0.1590     8.1940 oh         1 NII      -0.591800
     43 HO6         -0.3140     0.0000    -0.8890 ho         1 NII       0.393000
     44 H30          1.7900    -0.8840    -0.5110 h1         1 NII      -0.014300
     45 H30A         1.7900     0.8840    -0.5110 h1         1 NII      -0.014300
     46 H29          1.5790    -0.8850     1.9520 hc         1 NII       0.032200
     47 H29A         1.5780     0.8840     1.9530 hc         1 NII       0.032200
     48 H28          3.8300     0.8850     0.9300 h1         1 NII       0.018450
     49 H28A         3.8300    -0.8840     0.9310 h1         1 NII       0.018450
     50 HN3          3.3080    -0.0150     3.5820 hn         1 NII       0.360800
     51 H8           5.8500    -0.2270     0.9980 ha         1 NII       0.138000
     52 H18         10.3830    -0.9800    -0.4840 h1         1 NII       0.048200
     53 H18A        11.7340    -0.8860     0.6530 h1         1 NII       0.048200
     54 H19         10.2900     1.4880    -0.5800 hc         1 NII       0.033200
     55 H19A        11.6420     1.5830     0.5570 hc         1 NII       0.033200
     56 H20         11.7250     0.2670    -2.1830 h1         1 NII       0.010700
     57 H20A        13.0760     0.3620    -1.0450 h1         1 NII       0.010700
     58 H24         13.8780     2.2980    -0.3180 h1         1 NII       0.001450
     59 H24A        12.5660     3.4830    -0.2620 h1         1 NII       0.001450
     60 H24B        13.8940     3.6880    -1.4120 h1         1 NII       0.001450
     61 H23         12.6740     1.5670    -3.9050 h1         1 NII       0.001450
     62 H23A        13.5040     3.0830    -3.5270 h1         1 NII       0.001450
     63 H23B        14.1910     1.5430    -2.9940 h1         1 NII       0.001450
     64 H15          3.5110     1.0380     7.5370 h1         1 NII       0.048200
     65 H15A         4.8620     1.1370     8.6750 h1         1 NII       0.048200
     66 H16          4.9520    -1.3320     8.7830 hc         1 NII       0.033200
     67 H16A         3.6010    -1.4300     7.6460 hc         1 NII       0.033200
     68 H17          2.1680    -0.2000     9.2420 h1         1 NII       0.010700
     69 H17A         3.5190    -0.1010    10.3800 h1         1 NII       0.010700
     70 H21          1.7360    -2.9080    11.7370 h1         1 NII       0.001450
     71 H21A         2.5700    -1.3920    12.1080 h1         1 NII       0.001450
     72 H21B         1.0530    -1.3670    11.1980 h1         1 NII       0.001450
     73 H22          1.3450    -3.5220     9.6240 h1         1 NII       0.001450
     74 H22A         2.6750    -3.3250     8.4740 h1         1 NII       0.001450
     75 H22B         1.3650    -2.1370     8.5230 h1         1 NII       0.001450
     76 H1           9.3940     0.3750     7.1950 ha         1 NII       0.138000
     77 HN6         11.9360     0.1560     4.6120 hn         1 NII       0.360800
     78 H25         11.4140    -0.7320     7.2740 h1         1 NII       0.018450
     79 H25A        11.4150     1.0370     7.2550 h1         1 NII       0.018450
     80 H26         13.6670     1.0250     6.2340 hc         1 NII       0.032200
     81 H26A        13.6660    -0.7440     6.2520 hc         1 NII       0.032200
     82 H27         13.4560     1.0500     8.6980 h1         1 NII      -0.014300
     83 H27A        13.4550    -0.7190     8.7160 h1         1 NII      -0.014300
     84 HO5         15.5610     0.1680     9.0830 ho         1 NII       0.393000
@<TRIPOS>BOND
     1     1     2 1   
     2     1    43 1   
     3     2     3 1   
     4     2    44 1   
     5     2    45 1   
     6     3     4 1   
     7     3    46 1   
     8     3    47 1   
     9     4     5 1   
    10     4    48 1   
    11     4    49 1   
    12     5     6 1   
    13     5    50 1   
    14     6     7 ar  
    15     6    20 ar  
    16     7     8 ar  
    17     7    51 1   
    18     8     9 1   
    19     8    34 ar  
    20     9    10 2   
    21     9    11 1   
    22    11    12 1   
    23    11    18 1   
    24    12    13 1   
    25    12    52 1   
    26    12    53 1   
    27    13    14 1   
    28    13    54 1   
    29    13    55 1   
    30    14    15 1   
    31    14    56 1   
    32    14    57 1   
    33    15    16 1   
    34    15    17 1   
    35    16    58 1   
    36    16    59 1   
    37    16    60 1   
    38    17    61 1   
    39    17    62 1   
    40    17    63 1   
    41    18    19 2   
    42    18    35 1   
    43    20    21 1   
    44    20    30 ar  
    45    21    22 2   
    46    21    23 1   
    47    23    24 1   
    48    23    32 1   
    49    24    25 1   
    50    24    64 1   
    51    24    65 1   
    52    25    26 1   
    53    25    66 1   
    54    25    67 1   
    55    26    27 1   
    56    26    68 1   
    57    26    69 1   
    58    27    28 1   
    59    27    29 1   
    60    28    70 1   
    61    28    71 1   
    62    28    72 1   
    63    29    73 1   
    64    29    74 1   
    65    29    75 1   
    66    30    31 ar  
    67    30    34 ar  
    68    31    32 1   
    69    31    37 ar  
    70    32    33 2   
    71    34    35 ar  
    72    35    36 ar  
    73    36    37 ar  
    74    36    38 1   
    75    37    76 1   
    76    38    39 1   
    77    38    77 1   
    78    39    40 1   
    79    39    78 1   
    80    39    79 1   
    81    40    41 1   
    82    40    80 1   
    83    40    81 1   
    84    41    42 1   
    85    41    82 1   
    86    41    83 1   
    87    42    84 1   
@<TRIPOS>SUBSTRUCTURE
     1 NII         1 TEMP              0 ****  ****    0 ROOT
