@<TRIPOS>MOLECULE
NIL
   61    65     1     0     0
SMALL
bcc


@<TRIPOS>ATOM
      1 O17          0.0000     0.0000     0.0000 o          1 NIL      -0.633100
      2 C16          1.2160     0.0000     0.0000 c          1 NIL       0.595700
      3 N14          1.8900     0.0000     1.1660 ns         1 NIL      -0.043100
      4 C11          1.1940     0.0850     2.3770 ca         1 NIL      -0.063400
      5 C9          -0.0430    -0.5300     2.5110 ca         1 NIL      -0.085000
      6 C8          -0.7310    -0.4420     3.7130 ca         1 NIL      -0.144200
      7 N51         -1.9800    -1.0630     3.8530 na         1 NIL       0.413000
      8 C56         -2.6430    -1.7860     2.8960 cc         1 NIL      -0.437600
      9 C55         -3.7990    -2.1990     3.4490 cd         1 NIL       0.302600
     10 C58         -4.8570    -3.0280     2.7690 c3         1 NIL       0.002600
     11 N54         -3.8450    -1.7440     4.7100 nd         1 NIL      -0.600000
     12 C52         -2.7590    -1.0670     4.9660 cc         1 NIL       0.208400
     13 C6          -0.1790     0.2590     4.7770 ca         1 NIL      -0.080000
     14 C12          1.7420     0.7810     3.4480 ca         1 NIL      -0.086000
     15 C5           1.0530     0.8710     4.6410 ca         1 NIL      -0.167300
     16 C2           1.6460     1.6330     5.7970 c3         1 NIL       0.641200
     17 F4           2.4240     0.7660     6.5740 f          1 NIL      -0.205633
     18 F3           2.4490     2.6700     5.3100 f          1 NIL      -0.205633
     19 F1           0.6190     2.1660     6.5820 f          1 NIL      -0.205633
     20 C18          1.9540    -0.0060    -1.2800 ca         1 NIL      -0.157600
     21 C25          3.3500    -0.0050    -1.2840 ca         1 NIL      -0.099000
     22 C23          4.0370    -0.0110    -2.4810 ca         1 NIL      -0.090000
     23 C22          3.3480    -0.0160    -3.6790 ca         1 NIL      -0.093300
     24 C27          4.1060    -0.0210    -4.9810 c3         1 NIL       0.058200
     25 C21          1.9580    -0.0170    -3.6870 ca         1 NIL      -0.008400
     26 C19          1.2580    -0.0170    -2.4900 ca         1 NIL      -0.039000
     27 N31          1.2650    -0.0230    -4.9020 nu         1 NIL      -0.291300
     28 C33          0.0630     0.6560    -5.0170 ca         1 NIL       0.704900
     29 N40         -0.4520     1.2420    -3.9460 nb         1 NIL      -0.686000
     30 C38         -1.5990     1.9000    -4.0150 ca         1 NIL       0.498200
     31 C36         -2.2650     1.9750    -5.2250 ca         1 NIL      -0.404600
     32 C35         -1.6960     1.3470    -6.3370 cp         1 NIL       0.530800
     33 N34         -0.5380     0.7080    -6.1950 nb         1 NIL      -0.685000
     34 C41         -2.3710     1.3980    -7.6570 cp         1 NIL      -0.287800
     35 C49         -1.8030     0.7710    -8.7690 ca         1 NIL      -0.027000
     36 C47         -2.4720     0.8480    -9.9790 ca         1 NIL      -0.231300
     37 C45         -3.6700     1.5370   -10.0480 ca         1 NIL       0.418200
     38 N44         -4.1810     2.1190    -8.9800 nb         1 NIL      -0.586000
     39 C42         -3.5840     2.0680    -7.8070 ca         1 NIL       0.422200
     40 HN14         2.8870    -0.0850     1.1680 hn         1 NIL       0.181500
     41 H9          -0.4310    -1.1460     1.7090 ha         1 NIL       0.158000
     42 H56         -2.2270    -2.1310     1.9570 h4         1 NIL       0.163000
     43 H58         -5.6860    -3.1830     3.4490 hc         1 NIL       0.007700
     44 H58A        -4.4380    -3.9870     2.4870 hc         1 NIL       0.007700
     45 H58B        -5.2070    -2.5120     1.8840 hc         1 NIL       0.007700
     46 H52         -2.5220    -0.5830     5.9060 h5         1 NIL       0.027100
     47 H6          -0.7170     0.3300     5.7150 ha         1 NIL       0.132000
     48 H12          2.7080     1.2620     3.3430 ha         1 NIL       0.124000
     49 H25          3.8940    -0.0010    -0.3480 ha         1 NIL       0.098000
     50 H23          5.1210    -0.0100    -2.4810 ha         1 NIL       0.110000
     51 H27          5.1670     0.0610    -4.7810 hc         1 NIL       0.012033
     52 H27A         3.7870     0.8180    -5.5880 hc         1 NIL       0.012033
     53 H27B         3.9090    -0.9450    -5.5110 hc         1 NIL       0.012033
     54 H19          0.1750    -0.0180    -2.4940 ha         1 NIL       0.167000
     55 HN31         1.6140    -0.5560    -5.6740 hn         1 NIL       0.297800
     56 H38         -2.0110     2.3750    -3.1330 h4         1 NIL      -0.010900
     57 H36         -3.2060     2.5050    -5.3080 ha         1 NIL       0.135000
     58 H49         -0.8630     0.2380    -8.6870 ha         1 NIL       0.126000
     59 H47         -2.0620     0.3740   -10.8630 ha         1 NIL       0.115000
     60 H45         -4.1950     1.6020   -10.9930 h4         1 NIL      -0.019900
     61 H42         -4.0360     2.5590    -6.9530 h4         1 NIL      -0.012900
@<TRIPOS>BOND
     1     1     2 2   
     2     2     3 1   
     3     2    20 1   
     4     3     4 1   
     5     3    40 1   
     6     4     5 ar  
     7     4    14 ar  
     8     5     6 ar  
     9     5    41 1   
    10     6     7 1   
    11     6    13 ar  
    12     7     8 1   
    13     7    12 1   
    14     8     9 2   
    15     8    42 1   
    16     9    10 1   
    17     9    11 1   
    18    10    43 1   
    19    10    44 1   
    20    10    45 1   
    21    11    12 2   
    22    12    46 1   
    23    13    15 ar  
    24    13    47 1   
    25    14    15 ar  
    26    14    48 1   
    27    15    16 1   
    28    16    17 1   
    29    16    18 1   
    30    16    19 1   
    31    20    21 ar  
    32    20    26 ar  
    33    21    22 ar  
    34    21    49 1   
    35    22    23 ar  
    36    22    50 1   
    37    23    24 1   
    38    23    25 ar  
    39    24    51 1   
    40    24    52 1   
    41    24    53 1   
    42    25    26 ar  
    43    25    27 1   
    44    26    54 1   
    45    27    28 1   
    46    27    55 1   
    47    28    29 ar  
    48    28    33 ar  
    49    29    30 ar  
    50    30    31 ar  
    51    30    56 1   
    52    31    32 ar  
    53    31    57 1   
    54    32    33 ar  
    55    32    34 1   
    56    34    35 ar  
    57    34    39 ar  
    58    35    36 ar  
    59    35    58 1   
    60    36    37 ar  
    61    36    59 1   
    62    37    38 ar  
    63    37    60 1   
    64    38    39 ar  
    65    39    61 1   
@<TRIPOS>SUBSTRUCTURE
     1 NIL         1 TEMP              0 ****  ****    0 ROOT
