@<TRIPOS>MOLECULE
molecule
   61    65     1     0     0
SMALL
bcc


@<TRIPOS>ATOM
      1 O17          0.0000     0.0000     0.0000 o          1 NIL      -0.590100
      2 C16          1.2160     0.0000     0.0000 c          1 NIL       0.681700
      3 N14          1.8900     0.0000     1.1660 ns         1 NIL      -0.478100
      4 C11          1.1940     0.0850     2.3770 ca         1 NIL       0.082600
      5 C9          -0.0430    -0.5300     2.5110 ca         1 NIL      -0.122000
      6 C8          -0.7310    -0.4420     3.7130 ca         1 NIL       0.031800
      7 N51         -1.9800    -1.0630     3.8530 na         1 NIL      -0.112000
      8 C56         -2.6430    -1.7860     2.8960 cc         1 NIL      -0.261600
      9 C55         -3.7990    -2.1990     3.4490 cd         1 NIL       0.324600
     10 C58         -4.8570    -3.0280     2.7690 c3         1 NIL      -0.107400
     11 N54         -3.8450    -1.7440     4.7100 nd         1 NIL      -0.685000
     12 C52         -2.7590    -1.0670     4.9660 cc         1 NIL       0.405400
     13 C6          -0.1790     0.2590     4.7770 ca         1 NIL      -0.127000
     14 C12          1.7420     0.7810     3.4480 ca         1 NIL      -0.133000
     15 C5           1.0530     0.8710     4.6410 ca         1 NIL      -0.138300
     16 C2           1.6460     1.6330     5.7970 c3         1 NIL       0.677200
     17 F4           2.4240     0.7660     6.5740 f          1 NIL      -0.220633
     18 F3           2.4490     2.6700     5.3100 f          1 NIL      -0.220633
     19 F1           0.6190     2.1660     6.5820 f          1 NIL      -0.220633
     20 C18          1.9540    -0.0060    -1.2800 ca         1 NIL      -0.147600
     21 C25          3.3500    -0.0050    -1.2840 ca         1 NIL      -0.121000
     22 C23          4.0370    -0.0110    -2.4810 ca         1 NIL      -0.119000
     23 C22          3.3480    -0.0160    -3.6790 ca         1 NIL      -0.088300
     24 C27          4.1060    -0.0210    -4.9810 c3         1 NIL      -0.051800
     25 C21          1.9580    -0.0170    -3.6870 ca         1 NIL       0.150600
     26 C19          1.2580    -0.0170    -2.4900 ca         1 NIL      -0.059000
     27 N31          1.2650    -0.0230    -4.9020 nu         1 NIL      -0.755300
     28 C33          0.0630     0.6560    -5.0170 ca         1 NIL       0.939900
     29 N40         -0.4520     1.2420    -3.9460 nb         1 NIL      -0.789000
     30 C38         -1.5990     1.9000    -4.0150 ca         1 NIL       0.505200
     31 C36         -2.2650     1.9750    -5.2250 ca         1 NIL      -0.425600
     32 C35         -1.6960     1.3470    -6.3370 cp         1 NIL       0.567800
     33 N34         -0.5380     0.7080    -6.1950 nb         1 NIL      -0.796000
     34 C41         -2.3710     1.3980    -7.6570 cp         1 NIL      -0.285800
     35 C49         -1.8030     0.7710    -8.7690 ca         1 NIL      -0.048000
     36 C47         -2.4720     0.8480    -9.9790 ca         1 NIL      -0.265300
     37 C45         -3.6700     1.5370   -10.0480 ca         1 NIL       0.434200
     38 N44         -4.1810     2.1190    -8.9800 nb         1 NIL      -0.692000
     39 C42         -3.5840     2.0680    -7.8070 ca         1 NIL       0.444200
     40 HN14         2.8870    -0.0850     1.1680 hn         1 NIL       0.333500
     41 H9          -0.4310    -1.1460     1.7090 ha         1 NIL       0.177000
     42 H56         -2.2270    -2.1310     1.9570 h4         1 NIL       0.182000
     43 H58         -5.6860    -3.1830     3.4490 hc         1 NIL       0.047367
     44 H58A        -4.4380    -3.9870     2.4870 hc         1 NIL       0.047367
     45 H58B        -5.2070    -2.5120     1.8840 hc         1 NIL       0.047367
     46 H52         -2.5220    -0.5830     5.9060 h5         1 NIL       0.069100
     47 H6          -0.7170     0.3300     5.7150 ha         1 NIL       0.154000
     48 H12          2.7080     1.2620     3.3430 ha         1 NIL       0.151000
     49 H25          3.8940    -0.0010    -0.3480 ha         1 NIL       0.122000
     50 H23          5.1210    -0.0100    -2.4810 ha         1 NIL       0.138000
     51 H27          5.1670     0.0610    -4.7810 hc         1 NIL       0.048367
     52 H27A         3.7870     0.8180    -5.5880 hc         1 NIL       0.048367
     53 H27B         3.9090    -0.9450    -5.5110 hc         1 NIL       0.048367
     54 H19          0.1750    -0.0180    -2.4940 ha         1 NIL       0.192000
     55 HN31         1.6140    -0.5560    -5.6740 hn         1 NIL       0.468800
     56 H38         -2.0110     2.3750    -3.1330 h4         1 NIL       0.038100
     57 H36         -3.2060     2.5050    -5.3080 ha         1 NIL       0.150000
     58 H49         -0.8630     0.2380    -8.6870 ha         1 NIL       0.160000
     59 H47         -2.0620     0.3740   -10.8630 ha         1 NIL       0.142000
     60 H45         -4.1950     1.6020   -10.9930 h4         1 NIL       0.026100
     61 H42         -4.0360     2.5590    -6.9530 h4         1 NIL       0.028100
@<TRIPOS>BOND
     1     1     2 2
     2     2     3 1
     3     2    20 1
     4     3     4 1
     5     4     5 ar
     6     4    14 ar
     7     5     6 ar
     8     6     7 1
     9     6    13 ar
    10     7     8 1
    11     7    12 1
    12     8     9 2
    13     9    10 1
    14     9    11 1
    15    11    12 2
    16    13    15 ar
    17    14    15 ar
    18    15    16 1
    19    16    17 1
    20    16    18 1
    21    16    19 1
    22    20    21 ar
    23    20    26 ar
    24    21    22 ar
    25    22    23 ar
    26    23    24 1
    27    23    25 ar
    28    25    26 ar
    29    25    27 1
    30    27    28 1
    31    28    29 ar
    32    28    33 ar
    33    29    30 ar
    34    30    31 ar
    35    31    32 ar
    36    32    33 ar
    37    32    34 1
    38    34    35 ar
    39    34    39 ar
    40    35    36 ar
    41    36    37 ar
    42    37    38 ar
    43    38    39 ar
    44     3    40 1
    45     5    41 1
    46     8    42 1
    47    10    43 1
    48    10    44 1
    49    10    45 1
    50    12    46 1
    51    13    47 1
    52    14    48 1
    53    21    49 1
    54    22    50 1
    55    24    51 1
    56    24    52 1
    57    24    53 1
    58    26    54 1
    59    27    55 1
    60    30    56 1
    61    31    57 1
    62    35    58 1
    63    36    59 1
    64    37    60 1
    65    39    61 1
@<TRIPOS>SUBSTRUCTURE
     1 NIL         1 TEMP              0 ****  ****    0 ROOT
