@<TRIPOS>MOLECULE
molecule
   33    34     1     0     0
SMALL
bcc


@<TRIPOS>ATOM
      1 O4           0.0000     0.0000     0.0000 o          1 NIM      -0.205000
      2 N2           1.2180     0.0000     0.0000 no         1 NIM       0.295200
      3 O3           1.8270     0.0000     1.0550 o          1 NIM      -0.205000
      4 C5           1.9580    -0.0010    -1.2820 ca         1 NIM      -0.148200
      5 C4           1.2650    -0.0010    -2.4780 ca         1 NIM      -0.071000
      6 C3           1.9510    -0.0010    -3.6780 ca         1 NIM      -0.173000
      7 C2           3.3380    -0.0010    -3.6840 ca         1 NIM       0.169600
      8 N1           4.0350    -0.0010    -4.8970 nu         1 NIM      -0.752500
      9 S1           3.4060     0.7850    -6.2130 s6         1 NIM       1.320900
     10 O1           4.4300     0.6370    -7.1860 o          1 NIM      -0.616800
     11 O2           2.1290     0.1790    -6.3610 o          1 NIM      -0.616800
     12 C1           3.2680     2.5010    -5.6420 c3         1 NIM      -0.246300
     13 C6           3.3400    -0.0010    -1.2790 ca         1 NIM      -0.132000
     14 C7           4.0360    -0.0070    -2.4780 ca         1 NIM       0.074100
     15 O5           5.3950    -0.0070    -2.4780 os         1 NIM      -0.213200
     16 C8           5.7870    -0.1190    -1.1810 ca         1 NIM       0.058100
     17 C13          5.7690    -1.3570    -0.5550 ca         1 NIM      -0.135000
     18 C12          6.1690    -1.4690     0.7640 ca         1 NIM      -0.114000
     19 C11          6.5860    -0.3480     1.4580 ca         1 NIM      -0.116000
     20 C10          6.6050     0.8870     0.8360 ca         1 NIM      -0.114000
     21 C9           6.2120     1.0030    -0.4830 ca         1 NIM      -0.135000
     22 H4           0.1820    -0.0010    -2.4750 ha         1 NIM       0.173000
     23 H3           1.4050    -0.0020    -4.6140 ha         1 NIM       0.204000
     24 HN1          4.9380    -0.4280    -4.9550 hn         1 NIM       0.479800
     25 H11A         3.3760     3.1720    -6.4860 h1         1 NIM       0.104700
     26 H12A         4.0480     2.7040    -4.9180 h1         1 NIM       0.104700
     27 H13A         2.3000     2.6520    -5.1820 h1         1 NIM       0.104700
     28 H6           3.8800    -0.0050    -0.3400 ha         1 NIM       0.190000
     29 H13          5.4430    -2.2350    -1.0990 ha         1 NIM       0.145500
     30 H12          6.1550    -2.4350     1.2540 ha         1 NIM       0.141500
     31 H11          6.8960    -0.4370     2.4920 ha         1 NIM       0.139000
     32 H10          6.9340     1.7630     1.3820 ha         1 NIM       0.141500
     33 H9           6.2270     1.9710    -0.9700 ha         1 NIM       0.145500
@<TRIPOS>BOND
     1     1     2 1
     2     2     3 1
     3     2     4 1
     4     4     5 ar
     5     4    13 ar
     6     5     6 ar
     7     5    22 1
     8     6     7 ar
     9     6    23 1
    10     7     8 1
    11     7    14 ar
    12     8     9 1
    13     8    24 1
    14     9    10 2
    15     9    11 2
    16     9    12 1
    17    12    25 1
    18    12    26 1
    19    12    27 1
    20    13    14 ar
    21    13    28 1
    22    14    15 1
    23    15    16 1
    24    16    17 ar
    25    16    21 ar
    26    17    18 ar
    27    17    29 1
    28    18    19 ar
    29    18    30 1
    30    19    20 ar
    31    19    31 1
    32    20    21 ar
    33    20    32 1
    34    21    33 1
@<TRIPOS>SUBSTRUCTURE
     1 NIM         1 TEMP              0 ****  ****    0 ROOT
