@<TRIPOS>MOLECULE
molecule
   16    16     1     0     0
SMALL
bcc


@<TRIPOS>ATOM
      1 C1           0.0000     0.0000     0.0000 ca         1 NIN      -0.034000
      2 C2           1.3830     0.0000     0.0000 ca         1 NIN      -0.163200
      3 N2           2.1230     0.0010    -1.2820 no         1 NIN       0.294200
      4 O21          1.5140     0.0010    -2.3370 o          1 NIN      -0.189500
      5 O22          3.3410     0.0010    -1.2820 o          1 NIN      -0.189500
      6 C3           2.0740     0.0000     1.1970 ca         1 NIN      -0.018000
      7 C4           1.3830    -0.0010     2.3940 ca         1 NIN      -0.163200
      8 N4           2.1230    -0.0010     3.6760 no         1 NIN       0.294200
      9 O41          3.3410    -0.0010     3.6760 o          1 NIN      -0.189500
     10 O42          1.5140    -0.0020     4.7310 o          1 NIN      -0.189500
     11 C5          -0.0000    -0.0010     2.3940 ca         1 NIN      -0.034000
     12 C6          -0.6910     0.0060     1.1970 ca         1 NIN      -0.139000
     13 H1          -0.5420     0.0050    -0.9380 ha         1 NIN       0.178000
     14 H2           3.1570     0.0000     1.1970 ha         1 NIN       0.199000
     15 H3          -0.5420     0.0010     3.3320 ha         1 NIN       0.178000
     16 H4          -1.7740     0.0060     1.1970 ha         1 NIN       0.165000
@<TRIPOS>BOND
     1    10     8 1
     2    11    12 ar
     3    11     7 ar
     4    12     1 ar
     5     8     7 1
     6     8     9 1
     7     7     6 ar
     8     1     2 ar
     9     6     2 ar
    10     2     3 1
    11     3     4 1
    12     3     5 1
    13     1    13 1
    14     6    14 1
    15    11    15 1
    16    12    16 1
@<TRIPOS>SUBSTRUCTURE
     1 NIN         1 TEMP              0 ****  ****    0 ROOT
