@<TRIPOS>MOLECULE
molecule
   13    13     1     0     0
SMALL
bcc


@<TRIPOS>ATOM
      1 N            0.0000     0.0000     0.0000 nb         1 NIO      -0.731000
      2 C1           1.3170     0.0000     0.0000 ca         1 NIO       0.434200
      3 C2           2.0260     0.0000     1.2010 ca         1 NIO      -0.221900
      4 C3           1.3140     0.0090     2.4080 ca         1 NIO      -0.080000
      5 C4          -0.0680     0.0140     2.3520 ca         1 NIO      -0.287300
      6 C5          -0.6970     0.0100     1.1200 ca         1 NIO       0.381200
      7 C6           3.5030    -0.0060     1.2020 c          1 NIO       0.884200
      8 O1           4.1100    -0.0020     2.2540 o          1 NIO      -0.835800
      9 O2           4.1770    -0.0160     0.0370 o          1 NIO      -0.835800
     10 H1           1.8550    -0.0080    -0.9410 h4         1 NIO       0.046100
     11 H3           1.8320     0.0110     3.3590 ha         1 NIO       0.148000
     12 H4          -0.6520     0.0220     3.2650 ha         1 NIO       0.108000
     13 H5          -1.7790     0.0120     1.0740 h4         1 NIO      -0.010900
@<TRIPOS>BOND
     1     1     2 ar
     2     1     6 ar
     3     2     3 ar
     4     2    10 1
     5     3     4 ar
     6     3     7 1
     7     4     5 ar
     8     4    11 1
     9     5     6 ar
    10     5    12 1
    11     6    13 1
    12     7     8 1
    13     7     9 1
@<TRIPOS>SUBSTRUCTURE
     1 NIO         1 TEMP              0 ****  ****    0 ROOT
