@<TRIPOS>MOLECULE
NIO
   13    13     1     0     0
SMALL
bcc


@<TRIPOS>ATOM
      1 N          -0.0450    0.0060   -0.0570 nb        1 NIO     -0.708000
      2 C1          1.3010   -0.0060    0.0010 ca        1 NIO      0.402200
      3 C2          2.0380    0.0070    1.2050 ca        1 NIO     -0.230900
      4 C3          1.3250    0.0330    2.4060 ca        1 NIO     -0.082000
      5 C4         -0.0720    0.0450    2.3700 ca        1 NIO     -0.279300
      6 C5         -0.7080    0.0310    1.1180 ca        1 NIO      0.355200
      7 C6          3.5560   -0.0080    1.1860 c         1 NIO      0.911200
      8 O1          4.1580    0.0030    2.2970 o         1 NIO     -0.829300
      9 O2          4.1320   -0.0300    0.0620 o         1 NIO     -0.829300
     10 H1          1.8490   -0.0270   -0.9610 h4        1 NIO      0.037100
     11 H3          1.8830    0.0430    3.3550 ha        1 NIO      0.153000
     12 H4         -0.6630    0.0660    3.2920 ha        1 NIO      0.112000
     13 H5         -1.8080    0.0400    1.0460 h4        1 NIO     -0.013900
@<TRIPOS>BOND
     1    1    2 ar  
     2    1    6 ar  
     3    2    3 ar  
     4    2   10 1   
     5    3    4 ar  
     6    3    7 1   
     7    4    5 ar  
     8    4   11 1   
     9    5    6 ar  
    10    5   12 1   
    11    6   13 1   
    12    7    8 1   
    13    7    9 1   
@<TRIPOS>SUBSTRUCTURE
     1 NIO         1 TEMP              0 ****  ****    0 ROOT
