@<TRIPOS>MOLECULE
molecule
   39    39     1     0     0
SMALL
bcc


@<TRIPOS>ATOM
      1 C1           0.0000     0.0000     0.0000 ca         1 NIP      -0.113300
      2 C2           1.3870     0.0000     0.0000 ca         1 NIP      -0.011000
      3 C3           2.0740     0.0000     1.2140 ca         1 NIP      -0.191200
      4 N3           3.4960     0.0010     1.2030 no         1 NIP       0.282200
      5 O3A          4.0940    -0.0000     0.1010 o          1 NIP      -0.203000
      6 O3B          4.1100     0.0010     2.2970 o          1 NIP      -0.203000
      7 C4           1.3660     0.0000     2.4150 ca         1 NIP       0.216100
      8 O4           2.0540    -0.0010     3.5960 oh         1 NIP      -0.474100
      9 C5          -0.0290    -0.0010     2.4030 ca         1 NIP      -0.035100
     10 I5          -1.1420     0.0020     4.1730 i          1 NIP      -0.107900
     11 C6          -0.7160    -0.0010     1.1890 ca         1 NIP      -0.013000
     12 C7          -0.7410    -0.0000    -1.3110 c3         1 NIP      -0.116100
     13 C8          -1.0370     1.3920    -1.8340 c          1 NIP       0.671100
     14 O8          -0.1660     2.2180    -2.0950 o          1 NIP      -0.583100
     15 N9          -2.4020     1.6070    -1.9710 ns         1 NIP      -0.584900
     16 C10         -2.9500     2.8540    -2.4460 c3         1 NIP       0.101000
     17 C11         -3.2130     3.8070    -1.2830 c3         1 NIP      -0.106400
     18 C12         -4.2420     3.2560    -0.2900 c3         1 NIP      -0.083400
     19 C13         -4.4720     4.2340     0.8670 c3         1 NIP      -0.059400
     20 C14         -5.4740     3.7000     1.8870 c3         1 NIP      -0.204400
     21 C15         -5.8270     4.6330     3.0500 c          1 NIP       0.926600
     22 O15         -5.2040     5.7280     3.0990 o          1 NIP      -0.847300
     23 O16         -6.7250     4.1860     3.8200 o          1 NIP      -0.847300
     24 H2           1.9330     0.0000    -0.9360 ha         1 NIP       0.181000
     25 HO4          1.7300     0.6900     4.1490 ho         1 NIP       0.441000
     26 H6          -1.7990    -0.0010     1.1750 ha         1 NIP       0.165000
     27 H71         -0.1450    -0.5280    -2.0460 hc         1 NIP       0.065700
     28 H72         -1.6780    -0.5280    -1.1800 hc         1 NIP       0.065700
     29 HN9         -3.0310     0.8660    -1.7320 hn         1 NIP       0.313500
     30 H101        -2.2490     3.3140    -3.1320 h1         1 NIP       0.047200
     31 H102        -3.8810     2.6600    -2.9650 h1         1 NIP       0.047200
     32 H111        -3.5780     4.7480    -1.6780 hc         1 NIP       0.051700
     33 H112        -2.2820     3.9840    -0.7590 hc         1 NIP       0.051700
     34 H121        -3.8840     2.3140     0.1080 hc         1 NIP       0.021200
     35 H122        -5.1800     3.0900    -0.8050 hc         1 NIP       0.021200
     36 H131        -4.8430     5.1690     0.4670 hc         1 NIP       0.042200
     37 H132        -3.5270     4.4150     1.3650 hc         1 NIP       0.042200
     38 H141        -6.3900     3.4590     1.3620 hc         1 NIP       0.014700
     39 H142        -5.0720     2.7840     2.3030 hc         1 NIP       0.014700
@<TRIPOS>BOND
     1     1     2 ar
     2     1    11 ar
     3     1    12 1
     4     2     3 ar
     5     2    24 1
     6     3     4 1
     7     3     7 ar
     8     4     5 1
     9     4     6 1
    10     7     8 1
    11     7     9 ar
    12     8    25 1
    13     9    10 1
    14     9    11 ar
    15    11    26 1
    16    12    13 1
    17    12    27 1
    18    12    28 1
    19    13    14 2
    20    13    15 1
    21    15    16 1
    22    15    29 1
    23    16    17 1
    24    16    30 1
    25    16    31 1
    26    17    18 1
    27    17    32 1
    28    17    33 1
    29    18    19 1
    30    18    34 1
    31    18    35 1
    32    19    20 1
    33    19    36 1
    34    19    37 1
    35    20    21 1
    36    20    38 1
    37    20    39 1
    38    21    22 1
    39    21    23 1
@<TRIPOS>SUBSTRUCTURE
     1 NIP         1 TEMP              0 ****  ****    0 ROOT
