@<TRIPOS>MOLECULE
NIQ
   42    43     1     0     0
SMALL
bcc


@<TRIPOS>ATOM
      1 NAM          0.0000     0.0000     0.0000 nu         1 NIQ      -0.286000
      2 CAL         -0.7080    -1.2200     0.1140 cc         1 NIQ       0.007800
      3 CAH         -2.0700    -1.2470    -0.0080 cd         1 NIQ      -0.515400
      4 NAI         -2.7690    -0.0850    -0.2420 nz         1 NIQ       0.314600
      5 CAK         -0.0200    -2.4250     0.3470 c          1 NIQ       0.598700
      6 OAQ          1.1960    -2.4270     0.4540 o          1 NIQ      -0.607500
      7 NAJ         -0.7110    -3.5760     0.4520 ns         1 NIQ      -0.091500
      8 CAF         -2.0510    -3.5840     0.3350 c          1 NIQ       0.591500
      9 OAE         -2.6550    -4.6340     0.4330 o          1 NIQ      -0.641500
     10 NAG         -2.7340    -2.4470     0.1060 n          1 NIQ       0.046000
     11 CAD         -4.1930    -2.4870    -0.0200 c3         1 NIQ       0.018000
     12 CAC         -4.5710    -2.7070    -1.4870 c3         1 NIQ      -0.049400
     13 CAB         -6.0940    -2.7490    -1.6190 c3         1 NIQ      -0.021400
     14 CAA         -6.4730    -2.9710    -3.0860 c3         1 NIQ       0.009900
     15 CAO          2.0140     1.3300    -0.5740 c3         1 NIQ      -0.034900
     16 CAP          3.4270     1.4480     0.0310 c3         1 NIQ      -0.015900
     17 CAS          3.4280     0.6020     1.3160 c3         1 NIQ      -0.015900
     18 CAR          2.0130     0.0000     1.4480 c3         1 NIQ      -0.034900
     19 CAN          1.4650     0.0000     0.0000 c3         1 NIQ       0.089500
     20 HAN          1.8560    -0.8440    -0.5550 h1         1 NIQ       0.098700
     21 HAI1        -2.3950     0.6490     0.3260 hn         1 NIQ       0.204133
     22 HAI2        -3.7340    -0.2250    -0.0130 hn         1 NIQ       0.204133
     23 HAJ         -0.2230    -4.4330     0.6180 hn         1 NIQ       0.229500
     24 HAD1        -4.6120    -1.5480     0.3230 h1         1 NIQ       0.046700
     25 HAD2        -4.5860    -3.2980     0.5800 h1         1 NIQ       0.046700
     26 HAC1        -4.1780    -1.8960    -2.0870 hc         1 NIQ       0.023200
     27 HAC2        -4.1530    -3.6460    -1.8300 hc         1 NIQ       0.023200
     28 HAB1        -6.5130    -1.8110    -1.2760 hc         1 NIQ       0.018700
     29 HAB2        -6.4870    -3.5610    -1.0190 hc         1 NIQ       0.018700
     30 HAA1        -6.1700    -2.1110    -3.6710 hc         1 NIQ       0.010367
     31 HAA2        -5.9720    -3.8560    -3.4590 hc         1 NIQ       0.010367
     32 HAA3        -7.5450    -3.1020    -3.1660 hc         1 NIQ       0.010367
     33 HAO1         1.3960     2.1620    -0.2560 hc         1 NIQ       0.025200
     34 HAO2         2.0680     1.2810    -1.6550 hc         1 NIQ       0.025200
     35 HAP1         4.1610     1.0620    -0.6660 hc         1 NIQ       0.028950
     36 HAP2         3.6420     2.4830     0.2690 hc         1 NIQ       0.028950
     37 HAS1         3.6440     1.2310     2.1720 hc         1 NIQ       0.028950
     38 HAS2         4.1620    -0.1910     1.2370 hc         1 NIQ       0.028950
     39 HAR1         1.3960     0.6220     2.0860 hc         1 NIQ       0.025200
     40 HAR2         2.0680    -1.0120     1.8310 hc         1 NIQ       0.025200
     41 HNAM        -0.5000     0.8620    -0.0910 hn         1 NIQ       0.271800
     42 HAI3        -2.6850     0.1670    -1.2060 hn         1 NIQ       0.204133
@<TRIPOS>BOND
     1     1     2 1   
     2     1    19 1   
     3     1    41 1   
     4     2     3 2   
     5     2     5 1   
     6     3     4 1   
     7     3    10 1   
     8     4    21 1   
     9     4    22 1   
    10     4    42 1   
    11     5     6 2   
    12     5     7 1   
    13     7     8 1   
    14     7    23 1   
    15     8     9 2   
    16     8    10 1   
    17    10    11 1   
    18    11    12 1   
    19    11    24 1   
    20    11    25 1   
    21    12    13 1   
    22    12    26 1   
    23    12    27 1   
    24    13    14 1   
    25    13    28 1   
    26    13    29 1   
    27    14    30 1   
    28    14    31 1   
    29    14    32 1   
    30    15    16 1   
    31    15    19 1   
    32    15    33 1   
    33    15    34 1   
    34    16    17 1   
    35    16    35 1   
    36    16    36 1   
    37    17    18 1   
    38    17    37 1   
    39    17    38 1   
    40    18    19 1   
    41    18    39 1   
    42    18    40 1   
    43    19    20 1   
@<TRIPOS>SUBSTRUCTURE
     1 NIQ         1 TEMP              0 ****  ****    0 ROOT
