@<TRIPOS>MOLECULE
NIR
   36    37     1     0     0
SMALL
bcc


@<TRIPOS>ATOM
      1 N1           0.0000     0.0000     0.0000 nz         1 NIR       0.197600
      2 C4           3.6060     0.0030    -1.0260 c3         1 NIR       0.143800
      3 C5           2.1020     0.0010    -1.3040 c3         1 NIR      -0.051500
      4 C6           1.3470     0.0000     0.0000 c          1 NIR       0.322100
      5 O6           1.9540     0.0000     1.0500 o          1 NIR      -0.402100
      6 C8           4.1040     1.6390    -2.6460 c3         1 NIR       0.161000
      7 N9           4.3200     0.2330    -2.2910 n3         1 NIR      -0.483600
      8 C1'          5.7520     0.0860    -2.0020 c3         1 NIR       0.332300
      9 C2'          6.5880     0.2960    -3.2890 c3         1 NIR       0.135100
     10 O2'          5.9290    -0.2600    -4.4280 oh         1 NIR      -0.539800
     11 C3'          7.8750    -0.5050    -2.9410 c3         1 NIR       0.130100
     12 C4N          1.7370     1.2290    -2.0940 c2         1 NIR      -0.259200
     13 O3'          8.5070    -0.9910    -4.1260 oh         1 NIR      -0.554800
     14 C4'          7.3160    -1.6660    -2.0910 c3         1 NIR       0.173100
     15 C5N          2.6370     1.9540    -2.6910 c2         1 NIR      -0.016200
     16 O4'          6.0400    -1.2570    -1.5820 os         1 NIR      -0.398600
     17 C5'          8.2670    -1.9630    -0.9300 c3         1 NIR      -0.015100
     18 H1N1        -0.3340    -0.4440    -0.8330 hn         1 NIR       0.247467
     19 H1N2        -0.3340     0.9430     0.0320 hn         1 NIR       0.247467
     20 H55          1.8440    -0.8830    -1.8760 hc         1 NIR       0.081700
     21 H8           4.5390     1.8310    -3.6190 h1         1 NIR       0.040200
     22 H81          4.5800     2.2700    -1.9050 h1         1 NIR       0.040200
     23 H1'          6.0610     0.7890    -1.2380 h2         1 NIR       0.011700
     24 H2'          6.8150     1.3450    -3.4350 h1         1 NIR       0.008700
     25 HB           6.2070     0.1950    -5.2060 ho         1 NIR       0.397000
     26 H3'          8.5550     0.1030    -2.3560 h1         1 NIR       0.019700
     27 H4N          0.6950     1.5170    -2.1690 ha         1 NIR       0.091000
     28 HA           9.3530    -0.5840    -4.2200 ho         1 NIR       0.394000
     29 H4'          7.1970    -2.5470    -2.7090 h1         1 NIR       0.056700
     30 H5N          2.3130     2.8260    -3.2470 ha         1 NIR       0.116000
     31 H5'1         8.3930    -1.0710    -0.3290 hc         1 NIR       0.013367
     32 H5'2         7.8530    -2.7560    -0.3180 hc         1 NIR       0.013367
     33 H5'3         9.2280    -2.2740    -1.3210 hc         1 NIR       0.013367
     34 H4           3.8440     0.7960    -0.3270 h1         1 NIR       0.042200
     35 H13         -0.3340    -0.5870     0.7390 hn         1 NIR       0.247467
     36 H41          3.9000    -0.9540    -0.6130 h1         1 NIR       0.042200
@<TRIPOS>BOND
     1     1     4 1   
     2     1    18 1   
     3     1    19 1   
     4     1    35 1   
     5     2     3 1   
     6     2     7 1   
     7     2    34 1   
     8     2    36 1   
     9     3     4 1   
    10     3    12 1   
    11     3    20 1   
    12     4     5 2   
    13     6     7 1   
    14     6    15 1   
    15     6    21 1   
    16     6    22 1   
    17     7     8 1   
    18     8     9 1   
    19     8    16 1   
    20     8    23 1   
    21     9    10 1   
    22     9    11 1   
    23     9    24 1   
    24    10    25 1   
    25    11    13 1   
    26    11    14 1   
    27    11    26 1   
    28    12    15 2   
    29    12    27 1   
    30    13    28 1   
    31    14    16 1   
    32    14    17 1   
    33    14    29 1   
    34    15    30 1   
    35    17    31 1   
    36    17    32 1   
    37    17    33 1   
@<TRIPOS>SUBSTRUCTURE
     1 NIR         1 TEMP              0 ****  ****    0 ROOT
