@<TRIPOS>MOLECULE
molecule
   36    37     1     0     0
SMALL
bcc


@<TRIPOS>ATOM
      1 N1           0.0000     0.0000     0.0000 nz         1 NIR      -0.683400
      2 C4           3.6060     0.0030    -1.0260 c3         1 NIR       0.148800
      3 C5           2.1020     0.0010    -1.3040 c3         1 NIR      -0.096500
      4 C6           1.3470     0.0000     0.0000 c          1 NIR       0.487100
      5 O6           1.9540     0.0000     1.0500 o          1 NIR      -0.399100
      6 C8           4.1040     1.6390    -2.6460 c3         1 NIR       0.153000
      7 N9           4.3200     0.2330    -2.2910 n3         1 NIR      -0.638600
      8 C1'          5.7520     0.0860    -2.0020 c3         1 NIR       0.352300
      9 C2'          6.5880     0.2960    -3.2890 c3         1 NIR       0.103100
     10 O2'          5.9290    -0.2600    -4.4280 oh         1 NIR      -0.555800
     11 C3'          7.8750    -0.5050    -2.9410 c3         1 NIR       0.093100
     12 C4N          1.7370     1.2290    -2.0940 c2         1 NIR      -0.255200
     13 O3'          8.5070    -0.9910    -4.1260 oh         1 NIR      -0.574800
     14 C4'          7.3160    -1.6660    -2.0910 c3         1 NIR       0.136100
     15 C5N          2.6370     1.9540    -2.6910 c2         1 NIR      -0.058200
     16 O4'          6.0400    -1.2570    -1.5820 os         1 NIR      -0.406600
     17 C5'          8.2670    -1.9630    -0.9300 c3         1 NIR      -0.108100
     18 H1N1        -0.3340    -0.4440    -0.8330 hn         1 NIR       0.477467
     19 H1N2        -0.3340     0.9430     0.0320 hn         1 NIR       0.477467
     20 H55          1.8440    -0.8830    -1.8760 hc         1 NIR       0.117700
     21 H8           4.5390     1.8310    -3.6190 h1         1 NIR       0.070700
     22 H81          4.5800     2.2700    -1.9050 h1         1 NIR       0.070700
     23 H1'          6.0610     0.7890    -1.2380 h2         1 NIR       0.039700
     24 H2'          6.8150     1.3450    -3.4350 h1         1 NIR       0.042700
     25 HB           6.2070     0.1950    -5.2060 ho         1 NIR       0.411000
     26 H3'          8.5550     0.1030    -2.3560 h1         1 NIR       0.052700
     27 H4N          0.6950     1.5170    -2.1690 ha         1 NIR       0.110000
     28 HA           9.3530    -0.5840    -4.2200 ho         1 NIR       0.411000
     29 H4'          7.1970    -2.5470    -2.7090 h1         1 NIR       0.097700
     30 H5N          2.3130     2.8260    -3.2470 ha         1 NIR       0.153000
     31 H5'1         8.3930    -1.0710    -0.3290 hc         1 NIR       0.048700
     32 H5'2         7.8530    -2.7560    -0.3180 hc         1 NIR       0.048700
     33 H5'3         9.2280    -2.2740    -1.3210 hc         1 NIR       0.048700
     34 H4           3.8440     0.7960    -0.3270 h1         1 NIR       0.072200
     35 H13         -0.3340    -0.5870     0.7390 hn         1 NIR       0.477467
     36 H41          3.9000    -0.9540    -0.6130 h1         1 NIR       0.072200
@<TRIPOS>BOND
     1     1     4 1
     2     1    18 1
     3     1    19 1
     4     2     3 1
     5     2     7 1
     6     2    34 1
     7     2    36 1
     8     3     4 1
     9     3    12 1
    10     3    20 1
    11     4     5 2
    12     6     7 1
    13     6    15 1
    14     6    21 1
    15     6    22 1
    16     7     8 1
    17     8     9 1
    18     8    16 1
    19     8    23 1
    20     9    10 1
    21     9    11 1
    22     9    24 1
    23    10    25 1
    24    11    13 1
    25    11    14 1
    26    11    26 1
    27    12    15 2
    28    12    27 1
    29    13    28 1
    30    14    16 1
    31    14    17 1
    32    14    29 1
    33    15    30 1
    34    17    31 1
    35    17    32 1
    36    17    33 1
    37    35     1 1
@<TRIPOS>SUBSTRUCTURE
     1 NIR         1 TEMP              0 ****  ****    0 ROOT
