@<TRIPOS>MOLECULE
NIS
   13    12     1     0     0
SMALL
bcc


@<TRIPOS>ATOM
      1 C1           0.0000     0.0000     0.0000 c3         1 NIS       0.014900
      2 C2           1.5300     0.0000     0.0000 c3         1 NIS      -0.309000
      3 C4           2.0390     0.0000     1.4430 c3         1 NIS       0.014900
      4 N3           2.0180    -1.1970    -0.6900 no         1 NIS       0.951300
      5 O6           1.7240    -2.3030    -0.2740 o          1 NIS      -0.440000
      6 O5           2.7190    -1.0850    -1.6800 o          1 NIS      -0.440000
      7 H11         -0.3610     0.9260     0.4300 hc         1 NIS       0.021700
      8 H12         -0.3610    -0.8360     0.5870 hc         1 NIS       0.021700
      9 H13         -0.3610    -0.0910    -1.0170 hc         1 NIS       0.021700
     10 H2           1.8910     0.8840    -0.5110 h1         1 NIS       0.076700
     11 H41          3.1190    -0.0910     1.4450 hc         1 NIS       0.021700
     12 H42          1.7540     0.9260     1.9260 hc         1 NIS       0.021700
     13 H43          1.6060    -0.8360     1.9790 hc         1 NIS       0.021700
@<TRIPOS>BOND
     1     1     2 1   
     2     1     7 1   
     3     1     8 1   
     4     1     9 1   
     5     2     3 1   
     6     2     4 1   
     7     2    10 1   
     8     3    11 1   
     9     3    12 1   
    10     3    13 1   
    11     4     5 1   
    12     4     6 1   
@<TRIPOS>SUBSTRUCTURE
     1 NIS         1 TEMP              0 ****  ****    0 ROOT
