@<TRIPOS>MOLECULE
NIT
   16    16     1     0     0
SMALL
bcc


@<TRIPOS>ATOM
      1 N1           0.0000     0.0000     0.0000 nv         1 NIT      -0.569200
      2 C1           1.3970     0.0000     0.0000 ca         1 NIT       0.094600
      3 C2           2.0930     0.0000     1.2020 ca         1 NIT      -0.136000
      4 C3           3.4740    -0.0000     1.1990 ca         1 NIT      -0.004000
      5 C4           4.1640    -0.0000    -0.0000 ca         1 NIT      -0.458200
      6 N4           5.6440    -0.0010     0.0000 no         1 NIT       1.049200
      7 ON1          6.2530    -0.0010     1.0550 o          1 NIT      -0.452000
      8 ON2          6.2530    -0.0010    -1.0550 o          1 NIT      -0.452000
      9 C5           3.4740    -0.0000    -1.1990 ca         1 NIT      -0.004000
     10 C6           2.0930    -0.0060    -1.2020 ca         1 NIT      -0.136000
     11 HN11        -0.5000     0.8670    -0.0010 hn         1 NIT       0.282800
     12 HN12        -0.5000    -0.8670     0.0010 hn         1 NIT       0.282800
     13 H2           1.5530     0.0000     2.1410 ha         1 NIT       0.120000
     14 H3           4.0170    -0.0000     2.1360 ha         1 NIT       0.131000
     15 H5           4.0170    -0.0020    -2.1360 ha         1 NIT       0.131000
     16 H6           1.5530    -0.0060    -2.1410 ha         1 NIT       0.120000
@<TRIPOS>BOND
     1     1     2 1   
     2     1    11 1   
     3     1    12 1   
     4     2     3 ar  
     5     2    10 ar  
     6     3     4 ar  
     7     3    13 1   
     8     4     5 ar  
     9     4    14 1   
    10     5     6 1   
    11     5     9 ar  
    12     6     7 1   
    13     6     8 1   
    14     9    10 ar  
    15     9    15 1   
    16    10    16 1   
@<TRIPOS>SUBSTRUCTURE
     1 NIT         1 TEMP              0 ****  ****    0 ROOT
