@<TRIPOS>MOLECULE
NIU
   44    46     1     0     0
SMALL
bcc


@<TRIPOS>ATOM
      1 CA          0.0160    0.0080   -0.0670 cc        1 NIU     -0.254400
      2 CA2         1.4590    0.1280   -0.0400 c         1 NIU      0.738800
      3 OA2         2.2870    0.2630   -0.9420 o         1 NIU     -0.583500
      4 OA3         2.1270    0.0800    1.1950 os        1 NIU     -0.329200
      5 CA4         1.4120   -0.0140    2.3540 cc        1 NIU      0.170900
      6 CA5         0.0450   -0.0700    2.3870 cd        1 NIU     -0.257200
      7 CA6        -0.6610   -0.0930    1.1260 cd        1 NIU      0.222100
      8 OA6        -2.0270   -0.1910    1.0670 oh        1 NIU     -0.485100
      9 CB1        -0.6460   -1.3710   -2.0130 ca        1 NIU     -0.074300
     10 CB2        -1.8170   -2.1350   -2.1000 ca        1 NIU     -0.124500
     11 CB3        -1.7940   -3.3990   -2.6880 ca        1 NIU     -0.134000
     12 CB4        -0.6010   -3.9150   -3.1930 ca        1 NIU     -0.133000
     13 CB5         0.5700   -3.1610   -3.1060 ca        1 NIU     -0.134000
     14 CB6         0.5490   -1.8970   -2.5190 ca        1 NIU     -0.124500
     15 CG1        -0.7010   -0.0100   -1.3830 c3        1 NIU      0.050800
     16 CG2        -0.1790    1.0790   -2.3180 c3        1 NIU     -0.079400
     17 CG3        -1.1360    1.3460   -3.4510 c3        1 NIU     -0.092100
     18 CD1         2.3050   -0.0370    3.5490 c3        1 NIU     -0.048200
     19 CD2         2.1370   -1.3060    4.3630 c3        1 NIU     -0.074400
     20 CD3         0.9150   -1.2920    5.2560 c3        1 NIU     -0.079400
     21 CD4        -0.3950   -1.3380    4.5000 c3        1 NIU     -0.080400
     22 CD5        -0.6570   -0.0750    3.6980 c3        1 NIU     -0.018200
     23 HO6        -2.3530   -0.5360    1.9120 ho        1 NIU      0.432000
     24 HB2        -2.7620   -1.7360   -1.7020 ha        1 NIU      0.142500
     25 HB3        -2.7200   -3.9890   -2.7530 ha        1 NIU      0.129000
     26 HB4        -0.5830   -4.9110   -3.6580 ha        1 NIU      0.128000
     27 HB5         1.5140   -3.5640   -3.5020 ha        1 NIU      0.129000
     28 HB6         1.4790   -1.3080   -2.4480 ha        1 NIU      0.142500
     29 HG1        -1.7880    0.2310   -1.1710 hc        1 NIU      0.071700
     30 HG21        0.8230    0.7800   -2.7250 hc        1 NIU      0.054700
     31 HG22       -0.0280    2.0190   -1.7250 hc        1 NIU      0.054700
     32 HG31       -2.1150    1.7220   -3.0660 hc        1 NIU      0.034033
     33 HG32       -1.3240    0.4130   -4.0360 hc        1 NIU      0.034033
     34 HG33       -0.7090    2.1160   -4.1390 hc        1 NIU      0.034033
     35 HD11        2.0730    0.8630    4.1800 hc        1 NIU      0.075700
     36 HD12        3.3740    0.0480    3.2090 hc        1 NIU      0.075700
     37 HD21        2.0960   -2.1920    3.6770 hc        1 NIU      0.053700
     38 HD22        3.0490   -1.4260    5.0090 hc        1 NIU      0.053700
     39 HD31        0.9390   -0.3780    5.9080 hc        1 NIU      0.044200
     40 HD32        0.9640   -2.1850    5.9360 hc        1 NIU      0.044200
     41 HD41       -1.2280   -1.4690    5.2420 hc        1 NIU      0.047700
     42 HD42       -0.4090   -2.2300    3.8210 hc        1 NIU      0.047700
     43 HD51       -0.3130    0.8180    4.2910 hc        1 NIU      0.047700
     44 HD52       -1.7640    0.0530    3.5660 hc        1 NIU      0.047700
@<TRIPOS>BOND
     1    1    2 1   
     2    1    7 2   
     3    1   15 1   
     4    2    3 2   
     5    2    4 1   
     6    4    5 1   
     7    5    6 2   
     8    5   18 1   
     9    6    7 1   
    10    6   22 1   
    11    7    8 1   
    12    8   23 1   
    13    9   10 ar  
    14    9   14 ar  
    15    9   15 1   
    16   10   11 ar  
    17   10   24 1   
    18   11   12 ar  
    19   11   25 1   
    20   12   13 ar  
    21   12   26 1   
    22   13   14 ar  
    23   13   27 1   
    24   14   28 1   
    25   15   16 1   
    26   15   29 1   
    27   16   17 1   
    28   16   30 1   
    29   16   31 1   
    30   17   32 1   
    31   17   33 1   
    32   17   34 1   
    33   18   19 1   
    34   18   35 1   
    35   18   36 1   
    36   19   20 1   
    37   19   37 1   
    38   19   38 1   
    39   20   21 1   
    40   20   39 1   
    41   20   40 1   
    42   21   22 1   
    43   21   41 1   
    44   21   42 1   
    45   22   43 1   
    46   22   44 1   
@<TRIPOS>SUBSTRUCTURE
     1 NIU         1 TEMP              0 ****  ****    0 ROOT
