@<TRIPOS>MOLECULE
molecule
   34    37     1     0     0
SMALL
bcc


@<TRIPOS>ATOM
      1 C1           0.0000     0.0000     0.0000 ca         1 NIV       0.424200
      2 C2           1.3800     0.0000     0.0000 ca         1 NIV      -0.245300
      3 C3           2.0570     0.0000     1.2100 ca         1 NIV      -0.069300
      4 C4           1.3160    -0.0070     2.3870 ca         1 NIV      -0.077700
      5 N2           1.9820     0.0450     3.6110 ns         1 NIV      -0.451100
      6 C5           1.6650    -0.6220     4.7110 c          1 NIV       0.728100
      7 O1           2.3870    -0.4720     5.6770 o          1 NIV      -0.643500
      8 C6           0.5210    -1.5230     4.8650 ca         1 NIV      -0.279900
      9 C7           0.6460    -2.6900     5.6300 ca         1 NIV      -0.023000
     10 C8          -0.4790    -3.4750     5.8210 ca         1 NIV      -0.283300
     11 C9          -1.6810    -3.0890     5.2570 ca         1 NIV       0.460200
     12 N3          -1.7710    -1.9980     4.5210 nb         1 NIV      -0.718000
     13 C10         -0.7230    -1.2230     4.2890 ca         1 NIV       0.719200
     14 N4          -0.8510    -0.1190     3.4640 na         1 NIV      -0.805000
     15 C11         -0.0730    -0.0330     2.3120 ca         1 NIV       0.669200
     16 N1          -0.6780    -0.0200     1.1310 nb         1 NIV      -0.684000
     17 C12          3.5630    -0.0010     1.2490 c3         1 NIV      -0.050800
     18 C13         -1.7930     0.9510     3.8020 cx         1 NIV       0.193500
     19 C14         -3.2730     0.5780     3.9160 cx         1 NIV      -0.147900
     20 C15         -2.4640     0.8940     5.1750 cx         1 NIV      -0.147900
     21 H1          -0.5340     0.0000    -0.9430 h4         1 NIV       0.029100
     22 H2           1.9270     0.0170    -0.9340 ha         1 NIV       0.144000
     23 HN2          2.7790     0.6470     3.6640 hn         1 NIV       0.336500
     24 H7           1.5990    -2.9710     6.0610 ha         1 NIV       0.158000
     25 H8          -0.4210    -4.3730     6.4230 ha         1 NIV       0.145000
     26 H9          -2.5600    -3.7040     5.4070 h4         1 NIV       0.027100
     27 H121         3.9500    -0.0980     0.2410 hc         1 NIV       0.051700
     28 H122         3.9090    -0.8330     1.8500 hc         1 NIV       0.051700
     29 H123         3.9140     0.9280     1.6820 hc         1 NIV       0.051700
     30 H13         -1.6050     1.9510     3.4300 h1         1 NIV       0.100700
     31 H141        -3.9730     1.3450     3.6050 hc         1 NIV       0.083700
     32 H142        -3.5050    -0.4680     3.7590 hc         1 NIV       0.083700
     33 H151        -2.2020     0.0400     5.7890 hc         1 NIV       0.083700
     34 H152        -2.6700     1.8530     5.6350 hc         1 NIV       0.083700
@<TRIPOS>BOND
     1     1     2 ar
     2     1    16 ar
     3     1    21 1
     4     2     3 ar
     5     2    22 1
     6     3     4 ar
     7     3    17 1
     8     4     5 1
     9     4    15 ar
    10     5     6 1
    11     5    23 1
    12     6     7 2
    13     6     8 1
    14     8     9 ar
    15     8    13 ar
    16     9    10 ar
    17     9    24 1
    18    10    11 ar
    19    10    25 1
    20    11    12 ar
    21    11    26 1
    22    12    13 ar
    23    13    14 1
    24    14    15 1
    25    14    18 1
    26    15    16 ar
    27    17    27 1
    28    17    28 1
    29    17    29 1
    30    18    19 1
    31    18    20 1
    32    18    30 1
    33    19    20 1
    34    19    31 1
    35    19    32 1
    36    20    33 1
    37    20    34 1
@<TRIPOS>SUBSTRUCTURE
     1 NIV         1 TEMP              0 ****  ****    0 ROOT
