@<TRIPOS>MOLECULE
NIX
   28    29     1     0     0
SMALL
bcc


@<TRIPOS>ATOM
      1 N1         -0.0170    0.1200    0.0110 na        1 NIX     -0.630100
      2 C2          1.3780    0.0030    0.0200 cc        1 NIX      0.059000
      3 C3          2.1500    0.0050    1.1360 cd        1 NIX     -0.260400
      4 C4          1.5410    0.1710    2.4510 c         1 NIX      0.603900
      5 O4          2.1470    0.3790    3.5130 o         1 NIX     -0.557100
      6 C4A         0.0580    0.1060    2.4500 ca        1 NIX     -0.321900
      7 C5         -0.6420    0.0880    3.6610 ca        1 NIX     -0.016000
      8 C6         -2.0280    0.0240    3.6650 ca        1 NIX     -0.329300
      9 C7         -2.7040   -0.0250    2.4230 ca        1 NIX      0.452600
     10 N8         -2.0760   -0.0110    1.2360 nb        1 NIX     -0.748000
     11 C8A        -0.6980    0.0600    1.2300 ca        1 NIX      0.676200
     12 C9         -4.1990   -0.1100    2.4530 c3        1 NIX     -0.146400
     13 C1E        -0.7110    0.0270   -1.2550 c3        1 NIX      0.224800
     14 C2E        -1.0920   -1.3820   -1.6870 c3        1 NIX     -0.118100
     15 C1L         3.6560   -0.1900    0.9490 c         1 NIX      0.930800
     16 O1L         4.2050    0.4960    0.0410 o         1 NIX     -0.817800
     17 O2L         4.2350   -1.0530    1.6560 o         1 NIX     -0.817800
     18 H2          1.8500   -0.0610   -0.9800 h4        1 NIX      0.169000
     19 H5         -0.0650    0.1280    4.6010 ha        1 NIX      0.156000
     20 H6         -2.5970    0.0090    4.6020 ha        1 NIX      0.129000
     21 H91        -4.5000   -1.1170    2.8350 hc        1 NIX      0.044033
     22 H92        -4.6570    0.0380    1.4440 hc        1 NIX      0.044033
     23 H93        -4.6000    0.6710    3.1450 hc        1 NIX      0.044033
     24 HE11       -1.6430    0.6600   -1.2080 h1        1 NIX      0.054200
     25 HE21       -0.0370    0.4760   -2.0410 h1        1 NIX      0.054200
     26 HE12       -1.7960   -1.8480   -0.9570 hc        1 NIX      0.040700
     27 HE22       -0.1890   -2.0310   -1.7740 hc        1 NIX      0.040700
     28 HE32       -1.5940   -1.3290   -2.6830 hc        1 NIX      0.040700
@<TRIPOS>BOND
     1    1    2 1
     2    1   11 1
     3    1   13 1
     4    2    3 2
     5    2   18 1
     6    3    4 1
     7    3   15 1
     8    4    5 2
     9    4    6 1
    10    6    7 ar
    11    6   11 ar
    12    7    8 ar
    13    7   19 1
    14    8    9 ar
    15    8   20 1
    16    9   10 ar
    17    9   12 1
    18   10   11 ar
    19   12   21 1
    20   12   22 1
    21   12   23 1
    22   13   14 1
    23   13   24 1
    24   13   25 1
    25   14   26 1
    26   14   27 1
    27   14   28 1
    28   15   16 1
    29   15   17 1
@<TRIPOS>SUBSTRUCTURE
     1 NIX         1 TEMP              0 ****  ****    0 ROOT
