@<TRIPOS>MOLECULE
molecule
   18    18     1     0     0
SMALL
bcc


@<TRIPOS>ATOM
      1 C            0.0000     0.0000     0.0000 c          1 NIZ       0.576700
      2 C1           1.4820     0.0000     0.0000 ca         1 NIZ      -0.084600
      3 N1           4.2190    -0.0000    -0.0010 nb         1 NIZ      -0.635000
      4 O1          -0.6080    -1.0340     0.1940 o          1 NIZ      -0.419100
      5 C2           2.2000     0.0000     1.1990 ca         1 NIZ      -0.215300
      6 N2          -0.7250     0.0000     1.2570 ns         1 NIZ      -0.418300
      7 C3           3.5810    -0.0010     1.1520 ca         1 NIZ       0.450200
      8 N3          -1.6130     1.0600     1.5610 nz         1 NIZ      -0.657600
      9 C4           3.5800    -0.0050    -1.1540 ca         1 NIZ       0.450200
     10 C5           2.2000    -0.0050    -1.2000 ca         1 NIZ      -0.215300
     11 H2           1.6770    -0.0860     2.1440 ha         1 NIZ       0.150500
     12 H3           4.1400     0.0030     2.0800 h4         1 NIZ       0.055600
     13 HN3         -1.1200     1.9300     1.5230 hn         1 NIZ       0.444800
     14 H4           4.1380    -0.0040    -2.0830 h4         1 NIZ       0.055600
     15 H5           1.6760    -0.0870    -2.1450 ha         1 NIZ       0.150500
     16 H6          -0.6340    -0.7720     1.8870 hn         1 NIZ       0.421500
     17 H7          -2.3610     1.0710     0.8960 hn         1 NIZ       0.444800
     18 H33         -1.9860     0.9280     2.4810 hn         1 NIZ       0.444800
@<TRIPOS>BOND
     1     1     4 2
     2     2     1 1
     3     2    10 ar
     4     3     9 ar
     5     5     2 ar
     6     5    11 1
     7     6     1 1
     8     6     8 1
     9     7     3 ar
    10     7     5 ar
    11     7    12 1
    12     8    13 1
    13     9    10 ar
    14     9    14 1
    15    10    15 1
    16     6    16 1
    17     8    17 1
    18    18     8 1
@<TRIPOS>SUBSTRUCTURE
     1 NIZ         1 TEMP              0 ****  ****    0 ROOT
