@<TRIPOS>MOLECULE
NIZ
   18    19     1     0     0
SMALL
bcc


@<TRIPOS>ATOM
      1 C            0.0000     0.0000     0.0000 cu         1 NIZ       0.179100
      2 C1           1.4820     0.0000     0.0000 cc         1 NIZ      -0.141000
      3 N1           4.2190    -0.0000    -0.0010 n2         1 NIZ      -0.003000
      4 O1          -0.6080    -1.0340     0.1940 op         1 NIZ      -0.223400
      5 C2           2.2000     0.0000     1.1990 cc         1 NIZ      -0.186800
      6 N2          -0.7250     0.0000     1.2570 nk         1 NIZ      -0.256500
      7 C3           3.5810    -0.0010     1.1520 cd         1 NIZ       0.168700
      8 N3          -1.6130     1.0600     1.5610 nz         1 NIZ       0.142600
      9 C4           3.5800    -0.0050    -1.1540 cd         1 NIZ       0.168700
     10 C5           2.2000    -0.0050    -1.2000 cc         1 NIZ      -0.186800
     11 H2           1.6770    -0.0860     2.1440 ha         1 NIZ       0.110000
     12 H3           4.1400     0.0030     2.0800 h4         1 NIZ      -0.001900
     13 HN3         -1.1200     1.9300     1.5230 hn         1 NIZ       0.245800
     14 H4           4.1380    -0.0040    -2.0830 h4         1 NIZ      -0.001900
     15 H5           1.6760    -0.0870    -2.1450 ha         1 NIZ       0.110000
     16 H6          -0.6340    -0.7720     1.8870 hn         1 NIZ       0.386800
     17 H7          -2.3610     1.0710     0.8960 hn         1 NIZ       0.245800
     18 H33         -1.9860     0.9280     2.4810 hn         1 NIZ       0.245800
@<TRIPOS>BOND
     1     1     2 2   
     2     1     4 1   
     3     1     6 1   
     4     2     5 1   
     5     2    10 1   
     6     3     7 1   
     7     3     9 1   
     8     4     6 1   
     9     5     7 2   
    10     5    11 1   
    11     6     8 1   
    12     6    16 1   
    13     7    12 1   
    14     8    13 1   
    15     8    17 1   
    16     8    18 1   
    17     9    10 2   
    18     9    14 1   
    19    10    15 1   
@<TRIPOS>SUBSTRUCTURE
     1 NIZ         1 TEMP              0 ****  ****    0 ROOT
