@<TRIPOS>MOLECULE
NJ8
   34    35     1     0     0
SMALL
bcc


@<TRIPOS>ATOM
      1 C1           0.0000     0.0000     0.0000 ca         1 NJ8      -0.146000
      2 C2           1.3820     0.0000     0.0000 ca         1 NJ8      -0.059300
      3 C3           2.0780     0.0000     1.1940 ca         1 NJ8      -0.105000
      4 C4           1.3940     0.0010     2.3950 ca         1 NJ8      -0.089000
      5 C5           0.0080     0.0010     2.4040 ca         1 NJ8       0.057100
      6 C6          -0.6920     0.0010     1.2010 ca         1 NJ8       0.117100
      7 O7          -0.6670     0.0020     3.5850 os         1 NJ8      -0.199200
      8 C8          -1.1460    -1.1830     4.0450 ca         1 NJ8       0.177100
      9 C9          -1.9460    -1.2120     5.1820 ca         1 NJ8      -0.083600
     10 C10         -2.4340    -2.4120     5.6520 ca         1 NJ8      -0.035000
     11 C11         -2.1240    -3.5990     4.9850 ca         1 NJ8      -0.009000
     12 C12         -1.3200    -3.5650     3.8420 ca         1 NJ8      -0.027000
     13 C13         -0.8390    -2.3610     3.3760 ca         1 NJ8      -0.187000
     14 C15         -2.6290    -4.8490     5.4700 cg         1 NJ8       0.237800
     15 Cl16        -2.3300     0.2650     6.0100 cl         1 NJ8       0.004600
     16 O17         -2.0520     0.0060     1.2030 oh         1 NJ8      -0.489100
     17 N20         -3.0180    -5.8500     5.8420 n1         1 NJ8      -0.385800
     18 C21          2.1330    -0.0010    -1.3070 c3         1 NJ8       0.007900
     19 C22          2.3880     1.4420    -1.7500 c3         1 NJ8      -0.054400
     20 C23          3.1510     1.4410    -3.0760 c3         1 NJ8       0.026900
     21 H1          -0.5420    -0.0000    -0.9380 ha         1 NJ8       0.122000
     22 H3           3.1610    -0.0000     1.1900 ha         1 NJ8       0.114000
     23 H4           1.9410     0.0010     3.3300 ha         1 NJ8       0.119000
     24 H10         -3.0570    -2.4340     6.5380 ha         1 NJ8       0.124000
     25 H12         -1.0770    -4.4840     3.3220 ha         1 NJ8       0.113000
     26 H13         -0.2190    -2.3340     2.4880 ha         1 NJ8       0.134000
     27 HO17        -2.3630     0.8400     0.8900 ho         1 NJ8       0.410000
     28 H21          2.8610    -0.8030    -1.3040 hc         1 NJ8       0.029200
     29 H21A         1.4370    -0.1480    -2.1230 hc         1 NJ8       0.029200
     30 H22          3.3330     1.7820    -1.3450 hc         1 NJ8       0.025200
     31 H22A         1.5890     2.0770    -1.3870 hc         1 NJ8       0.025200
     32 H23          3.4060     2.4590    -3.3460 hc         1 NJ8      -0.000633
     33 H23A         4.0570     0.8570    -2.9710 hc         1 NJ8      -0.000633
     34 H23B         2.5290     1.0080    -3.8500 hc         1 NJ8      -0.000633
@<TRIPOS>BOND
     1     1     2 ar  
     2     1     6 ar  
     3     1    21 1   
     4     2     3 ar  
     5     2    18 1   
     6     3     4 ar  
     7     3    22 1   
     8     4     5 ar  
     9     4    23 1   
    10     5     6 ar  
    11     5     7 1   
    12     6    16 1   
    13     7     8 1   
    14     8     9 ar  
    15     8    13 ar  
    16     9    10 ar  
    17     9    15 1   
    18    10    11 ar  
    19    10    24 1   
    20    11    12 ar  
    21    11    14 1   
    22    12    13 ar  
    23    12    25 1   
    24    13    26 1   
    25    14    17 3   
    26    16    27 1   
    27    18    19 1   
    28    18    28 1   
    29    18    29 1   
    30    19    20 1   
    31    19    30 1   
    32    19    31 1   
    33    20    32 1   
    34    20    33 1   
    35    20    34 1   
@<TRIPOS>SUBSTRUCTURE
     1 NJ8         1 TEMP              0 ****  ****    0 ROOT
