@<TRIPOS>MOLECULE
molecule
   50    54     1     0     0
SMALL
bcc


@<TRIPOS>ATOM
      1 CAJ          0.0000     0.0000     0.0000 ca         1 NJD      -0.096000
      2 CBA          1.4000     0.0000     0.0000 ca         1 NJD      -0.236900
      3 CAH          2.4120     0.0000     1.0520 cc         1 NJD       0.375800
      4 NAM          3.5820     0.0000     0.4780 nd         1 NJD      -0.499100
      5 NAT          3.4350     0.0010    -0.9130 na         1 NJD      -0.056100
      6 CBB          2.0980    -0.0000    -1.2230 ca         1 NJD      -0.032200
      7 CAG          1.3880     0.0000    -2.4200 ca         1 NJD      -0.150000
      8 CAD          0.0230     0.0010    -2.4070 ca         1 NJD      -0.078000
      9 CAV         -0.6790    -0.0070    -1.2020 ca         1 NJD       0.122600
     10 NAR         -2.0800    -0.0080    -1.2110 nu         1 NJD      -0.747300
     11 CAY         -2.7630    -0.6660    -2.2140 ca         1 NJD       1.019900
     12 NAN         -4.0880    -0.5790    -2.2830 nb         1 NJD      -0.925000
     13 NAP         -2.0960    -1.3830    -3.1130 nb         1 NJD      -0.949000
     14 CAZ         -2.7530    -2.0170    -4.0770 ca         1 NJD       0.992300
     15 OAU         -2.0740    -2.7460    -4.9920 os         1 NJD      -0.408100
     16 CAA         -0.6510    -2.7910    -4.8600 c3         1 NJD       0.139700
     17 NAO         -4.0760    -1.9350    -4.1440 nb         1 NJD      -0.883000
     18 CAX         -4.7440    -1.2140    -3.2490 ca         1 NJD       1.020900
     19 NAQ         -6.1200    -1.1290    -3.3180 nu         1 NJD      -0.889900
     20 CAK         -6.8440    -1.8350    -4.3790 c3         1 NJD       0.243800
     21 CAL         -8.3460    -1.5770    -4.2280 c3         1 NJD      -0.020200
     22 CAW         -9.0910    -2.3030    -5.3200 cc         1 NJD      -0.158400
     23 CBD         -9.5310    -3.7000    -5.2940 ca         1 NJD      -0.096800
     24 CAF         -9.4270    -4.7330    -4.3600 ca         1 NJD      -0.078000
     25 CAC         -9.9570    -5.9600    -4.6440 ca         1 NJD      -0.155000
     26 CAB        -10.5980    -6.1880    -5.8550 ca         1 NJD      -0.107000
     27 CAE        -10.7110    -5.1820    -6.7900 ca         1 NJD      -0.144000
     28 CBC        -10.1790    -3.9250    -6.5210 ca         1 NJD      -0.037200
     29 NAS        -10.1290    -2.7470    -7.2300 na         1 NJD      -0.180400
     30 CAI         -9.4820    -1.7900    -6.4970 cd         1 NJD      -0.091100
     31 H1          -0.5460    -0.0060     0.9360 ha         1 NJD       0.135000
     32 H2           2.2250    -0.0000     2.1180 h4         1 NJD       0.061800
     33 H4           1.9200     0.0060    -3.3640 ha         1 NJD       0.131000
     34 H5          -0.5210    -0.0050    -3.3440 ha         1 NJD       0.163000
     35 H6          -2.5850     0.4880    -0.5030 hn         1 NJD       0.468800
     36 H7          -0.3910    -3.0690    -3.8460 h1         1 NJD       0.050367
     37 H8          -0.2370    -1.8150    -5.0850 h1         1 NJD       0.050367
     38 H9          -0.2480    -3.5220    -5.5500 h1         1 NJD       0.050367
     39 H10         -6.6200    -0.5610    -2.6630 hn         1 NJD       0.458800
     40 H11         -6.6510    -2.8980    -4.3020 h1         1 NJD       0.061200
     41 H12         -6.5110    -1.4760    -5.3450 h1         1 NJD       0.061200
     42 H13         -8.6790    -1.9370    -3.2630 hc         1 NJD       0.049700
     43 H14         -8.5390    -0.5140    -4.3040 hc         1 NJD       0.049700
     44 H15         -8.9290    -4.5620    -3.4130 ha         1 NJD       0.131000
     45 H16         -9.8760    -6.7610    -3.9200 ha         1 NJD       0.129000
     46 H17        -11.0130    -7.1660    -6.0660 ha         1 NJD       0.130000
     47 H18        -11.2130    -5.3700    -7.7320 ha         1 NJD       0.125000
     48 H19        -10.5150    -2.6080    -8.1430 hn         1 NJD       0.296700
     49 H20         -9.3120    -0.7690    -6.8180 h4         1 NJD       0.166000
     50 H3           4.1840     0.0010    -1.5760 hn         1 NJD       0.330700
@<TRIPOS>BOND
     1    16    15 1
     2    15    14 1
     3    17    14 ar
     4    17    18 ar
     5    14    13 ar
     6    20    19 1
     7    20    21 1
     8    19    18 1
     9    18    12 ar
    10    21    22 1
    11    13    11 ar
    12    12    11 ar
    13    22    30 2
    14    22    23 1
    15    11    10 1
    16    24    23 ar
    17    24    25 ar
    18    30    29 1
    19    23    28 ar
    20    10     9 1
    21    25    26 ar
    22    29    28 1
    23    28    27 ar
    24    26    27 ar
    25     9     1 ar
    26     9     8 ar
    27     1     2 ar
    28     8     7 ar
    29     2     3 1
    30     2     6 ar
    31     7     6 ar
    32     3     4 2
    33     6     5 1
    34     4     5 1
    35     1    31 1
    36     3    32 1
    37     7    33 1
    38     8    34 1
    39    10    35 1
    40    16    36 1
    41    16    37 1
    42    16    38 1
    43    19    39 1
    44    20    40 1
    45    20    41 1
    46    21    42 1
    47    21    43 1
    48    24    44 1
    49    25    45 1
    50    26    46 1
    51    27    47 1
    52    29    48 1
    53    30    49 1
    54     5    50 1
@<TRIPOS>SUBSTRUCTURE
     1 NJD         1 TEMP              0 ****  ****    0 ROOT
