@<TRIPOS>MOLECULE
NJQ
   59    62     1     0     0
SMALL
bcc


@<TRIPOS>ATOM
      1 C1           0.0000     0.0000     0.0000 c3         1 NJQ       0.096200
      2 C2           1.5070     0.0000     0.0000 ca         1 NJQ      -0.158300
      3 C3           2.1940     0.0000     1.1920 ca         1 NJQ      -0.060000
      4 C4           3.5920    -0.0010     1.1920 ca         1 NJQ      -0.106600
      5 C5           4.2870    -0.0020    -0.0220 ca         1 NJQ      -0.046000
      6 C6           3.5940    -0.0030    -1.2110 ca         1 NJQ      -0.167000
      7 C7           2.2020    -0.0060    -1.2060 ca         1 NJQ      -0.129400
      8 N8           1.5030    -0.0130    -2.4110 ns         1 NJQ      -0.012100
      9 C9           4.3320     0.0000     2.4670 c          1 NJQ       0.974200
     10 O10          3.7270     0.0010     3.5200 o          1 NJQ      -0.885300
     11 O11          5.6800    -0.0010     2.4640 o          1 NJQ      -0.885300
     12 C15         -0.5020    -1.4200    -0.0290 ca         1 NJQ      -0.068300
     13 C18         -1.4250    -4.0260    -0.0820 ca         1 NJQ      -0.117000
     14 C19         -1.1590    -3.3640    -1.2650 ca         1 NJQ      -0.100500
     15 C20         -0.6980    -2.0600    -1.2390 ca         1 NJQ      -0.098500
     16 C21         -0.7630    -2.0850     1.1550 ca         1 NJQ      -0.098500
     17 C22         -1.2240    -3.3890     1.1280 ca         1 NJQ      -0.100500
     18 C28          2.1220    -0.3930    -3.5470 c          1 NJQ       0.446600
     19 O29          3.2910    -0.7230    -3.5210 o          1 NJQ      -0.603100
     20 C30          1.3760    -0.4090    -4.8260 ca         1 NJQ       0.334800
     21 C32          0.0700     0.0760    -4.8720 ca         1 NJQ      -0.218300
     22 C33         -0.6160     0.0540    -6.0760 ca         1 NJQ      -0.075000
     23 C34          0.0290    -0.4520    -7.1950 ca         1 NJQ      -0.211300
     24 C35          1.3300    -0.9160    -7.0760 ca         1 NJQ       0.365600
     25 N36          1.9580    -0.8800    -5.9220 nb         1 NJQ      -0.495000
     26 C37          2.0340    -1.4670    -8.2900 c3         1 NJQ      -0.069700
     27 C41          3.2980    -0.6490    -8.5610 c3         1 NJQ      -0.042700
     28 C44          3.9040    -1.0740    -9.8990 c3         1 NJQ      -0.041900
     29 C45          4.3130    -0.8920    -7.4410 c3         1 NJQ      -0.041900
     30 C47          6.1820    -0.4980    -9.0510 c3         1 NJQ      -0.027400
     31 C48          5.5770    -0.0730    -7.7120 c3         1 NJQ      -0.020900
     32 C57          5.1680    -0.2550   -10.1700 c3         1 NJQ      -0.020900
     33 H1          -0.3610     0.5290    -0.8740 hc         1 NJQ       0.009700
     34 H1A         -0.3610     0.4920     0.8950 hc         1 NJQ       0.009700
     35 H3           1.6530     0.0000     2.1300 ha         1 NJQ       0.123000
     36 H5           5.3700    -0.0010    -0.0270 ha         1 NJQ       0.132000
     37 H6           4.1320    -0.0050    -2.1510 ha         1 NJQ       0.161000
     38 HN8          0.5600     0.3220    -2.4430 hn         1 NJQ       0.166500
     39 H18         -1.7860    -5.0470    -0.1020 ha         1 NJQ       0.094000
     40 H19         -1.3150    -3.8640    -2.2130 ha         1 NJQ       0.096000
     41 H20         -0.4890    -1.5400    -2.1660 ha         1 NJQ       0.106500
     42 H21         -0.6050    -1.5850     2.1030 ha         1 NJQ       0.106500
     43 H22         -1.4310    -3.9090     2.0560 ha         1 NJQ       0.096000
     44 H32         -0.4030     0.4640    -3.9780 ha         1 NJQ       0.117000
     45 H33         -1.6320     0.4240    -6.1420 ha         1 NJQ       0.106000
     46 H34         -0.4790    -0.4850    -8.1510 ha         1 NJQ       0.112000
     47 H37          2.3040    -2.5010    -8.1120 hc         1 NJQ       0.022200
     48 H37A         1.3750    -1.4080    -9.1470 hc         1 NJQ       0.022200
     49 H41          3.0500     0.4050    -8.5980 hc         1 NJQ       0.026700
     50 H44          4.1580    -2.1270    -9.8610 hc         1 NJQ       0.028700
     51 H44A         3.1850    -0.9000   -10.6910 hc         1 NJQ       0.028700
     52 H45          4.5670    -1.9440    -7.4080 hc         1 NJQ       0.028700
     53 H45A         3.8840    -0.5880    -6.4940 hc         1 NJQ       0.028700
     54 H47          7.0760     0.0840    -9.2420 hc         1 NJQ       0.009700
     55 H47A         6.4320    -1.5520    -9.0150 hc         1 NJQ       0.009700
     56 H48          6.2950    -0.2490    -6.9200 hc         1 NJQ       0.011450
     57 H48A         5.3220     0.9790    -7.7490 hc         1 NJQ       0.011450
     58 H57          5.5970    -0.5580   -11.1170 hc         1 NJQ       0.011450
     59 H57A         4.9140     0.7980   -10.2030 hc         1 NJQ       0.011450
@<TRIPOS>BOND
     1     1     2 1   
     2     1    12 1   
     3     1    33 1   
     4     1    34 1   
     5     2     3 ar  
     6     2     7 ar  
     7     3     4 ar  
     8     3    35 1   
     9     4     5 ar  
    10     4     9 1   
    11     5     6 ar  
    12     5    36 1   
    13     6     7 ar  
    14     6    37 1   
    15     7     8 1   
    16     8    18 1   
    17     8    38 1   
    18     9    10 1   
    19     9    11 1   
    20    12    15 ar  
    21    12    16 ar  
    22    13    14 ar  
    23    13    17 ar  
    24    13    39 1   
    25    14    15 ar  
    26    14    40 1   
    27    15    41 1   
    28    16    17 ar  
    29    16    42 1   
    30    17    43 1   
    31    18    19 2   
    32    18    20 1   
    33    20    21 ar  
    34    20    25 ar  
    35    21    22 ar  
    36    21    44 1   
    37    22    23 ar  
    38    22    45 1   
    39    23    24 ar  
    40    23    46 1   
    41    24    25 ar  
    42    24    26 1   
    43    26    27 1   
    44    26    47 1   
    45    26    48 1   
    46    27    28 1   
    47    27    29 1   
    48    27    49 1   
    49    28    32 1   
    50    28    50 1   
    51    28    51 1   
    52    29    31 1   
    53    29    52 1   
    54    29    53 1   
    55    30    31 1   
    56    30    32 1   
    57    30    54 1   
    58    30    55 1   
    59    31    56 1   
    60    31    57 1   
    61    32    58 1   
    62    32    59 1   
@<TRIPOS>SUBSTRUCTURE
     1 NJQ         1 TEMP              0 ****  ****    0 ROOT
