@<TRIPOS>MOLECULE
NK
   15    15     1     0     0
SMALL
bcc


@<TRIPOS>ATOM
      1 OAH        -0.0840    0.0530   -0.0540 o         1 NK      -0.539100
      2 CAD         1.1470   -0.0180   -0.0020 c         1 NK       0.584500
      3 CAA         1.8990   -0.0350    1.2620 ca        1 NK      -0.224600
      4 CAC         1.2350    0.0320    2.4930 ca        1 NK      -0.040000
      5 CAG         1.9460    0.0170    3.6900 ca        1 NK      -0.180000
      6 CAI         3.3390   -0.0670    3.6730 ca        1 NK      -0.061000
      7 CAE         4.0270   -0.1350    2.4650 ca        1 NK      -0.230000
      8 CAB         3.3060   -0.1190    1.2600 ca        1 NK       0.167100
      9 OAF         3.9310   -0.1830    0.0380 oh        1 NK      -0.498100
     10 HAD         1.7690   -0.0760   -0.9230 h4        1 NK       0.019200
     11 HAC         0.1340    0.0980    2.4930 ha        1 NK       0.158000
     12 HAG         1.4100    0.0700    4.6490 ha        1 NK       0.141000
     13 HAI         3.9010   -0.0790    4.6200 ha        1 NK       0.137000
     14 HAE         5.1240   -0.2000    2.4500 ha        1 NK       0.138000
     15 HAF         4.8870   -0.2370    0.1900 ho        1 NK       0.427000
@<TRIPOS>BOND
     1    1    2 2   
     2    2    3 1   
     3    2   10 1   
     4    3    4 ar  
     5    3    8 ar  
     6    4    5 ar  
     7    4   11 1   
     8    5    6 ar  
     9    5   12 1   
    10    6    7 ar  
    11    6   13 1   
    12    7    8 ar  
    13    7   14 1   
    14    8    9 1   
    15    9   15 1   
@<TRIPOS>SUBSTRUCTURE
     1 NK          1 TEMP              0 ****  ****    0 ROOT
