@<TRIPOS>MOLECULE
molecule
   15    15     1     0     0
SMALL
bcc


@<TRIPOS>ATOM
      1 OAH          0.0000     0.0000     0.0000 o          1 NK       -0.534100
      2 CAD          1.2130     0.0000     0.0000 c          1 NK        0.587500
      3 CAA          1.9460     0.0000     1.2710 ca         1 NK       -0.218600
      4 CAC          1.2510    -0.0020     2.4860 ca         1 NK       -0.049000
      5 CAG          1.9450    -0.0020     3.6750 ca         1 NK       -0.161000
      6 CAI          3.3320    -0.0070     3.6750 ca         1 NK       -0.077000
      7 CAE          4.0320    -0.0120     2.4850 ca         1 NK       -0.196000
      8 CAB          3.3510    -0.0110     1.2780 ca         1 NK        0.153100
      9 OAF          4.0370    -0.0150     0.1070 oh         1 NK       -0.516100
     10 HAD          1.7550     0.0010    -0.9380 h4         1 NK        0.015200
     11 HAC          0.1680     0.0020     2.4910 ha         1 NK        0.157000
     12 HAG          1.4050    -0.0010     4.6140 ha         1 NK        0.138000
     13 HAI          3.8700    -0.0080     4.6160 ha         1 NK        0.135000
     14 HAE          5.1150    -0.0190     2.4950 ha         1 NK        0.140000
     15 HAF          4.5880    -0.7800     0.0690 ho         1 NK        0.427000
@<TRIPOS>BOND
     1     1     2 2
     2     2     3 1
     3     2    10 1
     4     3     4 ar
     5     3     8 ar
     6     4     5 ar
     7     4    11 1
     8     5     6 ar
     9     5    12 1
    10     6     7 ar
    11     6    13 1
    12     7     8 ar
    13     7    14 1
    14     8     9 1
    15     9    15 1
@<TRIPOS>SUBSTRUCTURE
     1 NK          1 TEMP              0 ****  ****    0 ROOT
