@<TRIPOS>MOLECULE
molecule
   55    59     1     0     0
SMALL
bcc


@<TRIPOS>ATOM
      1 C1           0.0000     0.0000     0.0000 ca         1 NK0      -0.139000
      2 N1          -3.8750    -1.7830     3.2360 na         1 NK0       0.249200
      3 O1          -0.2420     0.5280     4.6650 o          1 NK0      -0.539100
      4 C2           1.3840     0.0000     0.0000 ca         1 NK0      -0.105000
      5 N2          -6.1530    -2.3940     4.5960 nc         1 NK0      -0.857000
      6 O2          -8.7830    -5.0490     6.7260 o          1 NK0      -0.602100
      7 C3           2.0810     0.0000     1.1950 ca         1 NK0      -0.139000
      8 N3          -4.9020    -2.5460     2.6600 nd         1 NK0      -0.589800
      9 C4           1.4010     0.0010     2.3950 ca         1 NK0      -0.090500
     10 N4          -5.4400    -1.2520     6.5170 nu         1 NK0      -0.747300
     11 C5           0.0050     0.0020     2.4020 ca         1 NK0      -0.162600
     12 N5         -10.4630    -4.3730     8.0120 ns         1 NK0      -0.551900
     13 C6          -0.6930     0.0010     1.1920 ca         1 NK0      -0.090500
     14 C7          -0.7310     0.0020     3.6840 c          1 NK0       0.625900
     15 C8          -2.0560    -0.6350     3.7730 cc         1 NK0      -0.248200
     16 C9          -2.6860    -1.3680     2.7780 cd         1 NK0      -0.068100
     17 C10         -4.0390    -1.3380     4.5350 cd         1 NK0      -0.304600
     18 C11         -2.9200    -0.6200     4.8880 cc         1 NK0      -0.038200
     19 C12         -2.6670     0.0550     6.2120 c3         1 NK0      -0.048900
     20 C13         -5.2360    -1.6720     5.2170 cd         1 NK0       0.798200
     21 C14         -5.9810    -2.8120     3.3430 cc         1 NK0       0.709900
     22 C15         -6.6750    -1.4680     7.1350 ca         1 NK0       0.125600
     23 C16         -7.3330    -2.6760     6.9660 ca         1 NK0      -0.047000
     24 C17         -8.5650    -2.8860     7.5860 ca         1 NK0      -0.142600
     25 C18         -9.1260    -1.8790     8.3720 ca         1 NK0      -0.112000
     26 C19         -8.4630    -0.6790     8.5340 ca         1 NK0      -0.126000
     27 C20         -7.2400    -0.4730     7.9250 ca         1 NK0      -0.081300
     28 C21         -6.5200     0.8380     8.1110 c3         1 NK0      -0.051800
     29 C22         -9.2730    -4.1720     7.4110 c          1 NK0       0.680700
     30 C23        -11.1650    -5.6460     7.8380 cx         1 NK0       0.060700
     31 C24        -12.6860    -5.6440     8.0090 cx         1 NK0      -0.157900
     32 C25        -11.7970    -6.2810     9.0790 cx         1 NK0      -0.157900
     33 H1          -0.5400    -0.0000    -0.9390 ha         1 NK0       0.134500
     34 H2           1.9230    -0.0010    -0.9390 ha         1 NK0       0.132000
     35 H3           3.1650    -0.0000     1.1880 ha         1 NK0       0.134500
     36 H4           1.9490     0.0010     3.3290 ha         1 NK0       0.145000
     37 HN4         -4.6850    -0.8490     7.0360 hn         1 NK0       0.470800
     38 HN5        -10.8740    -3.6470     8.5640 hn         1 NK0       0.317500
     39 H6          -1.7760     0.0020     1.1900 ha         1 NK0       0.145000
     40 H9          -2.2820    -1.5750     1.7950 h4         1 NK0       0.195000
     41 H12         -3.4190     0.8160     6.3790 hc         1 NK0       0.056367
     42 H12A        -1.6850     0.5130     6.2020 hc         1 NK0       0.056367
     43 H12B        -2.7140    -0.6800     7.0060 hc         1 NK0       0.056367
     44 H14         -6.7620    -3.4010     2.8780 h5         1 NK0       0.080100
     45 H16         -6.8920    -3.4550     6.3550 ha         1 NK0       0.187000
     46 H18        -10.0840    -2.0380     8.8530 ha         1 NK0       0.125000
     47 H19         -8.9000     0.1010     9.1460 ha         1 NK0       0.137000
     48 H21         -5.5860     0.6660     8.6320 hc         1 NK0       0.047367
     49 H21A        -6.3170     1.2790     7.1420 hc         1 NK0       0.047367
     50 H21B        -7.1390     1.5110     8.6910 hc         1 NK0       0.047367
     51 H23        -10.7930    -6.3540     7.1070 h1         1 NK0       0.124700
     52 H24        -13.2290    -6.3380     7.3790 hc         1 NK0       0.077450
     53 H24A       -13.1250    -4.6900     8.2740 hc         1 NK0       0.077450
     54 H25        -11.6920    -5.7150     9.9970 hc         1 NK0       0.077450
     55 H25A       -11.7960    -7.3640     9.1020 hc         1 NK0       0.077450
@<TRIPOS>BOND
     1     1     4 ar
     2     1    13 ar
     3     2     8 1
     4     2    16 1
     5     2    17 1
     6     3    14 2
     7     4     7 ar
     8     5    20 2
     9     5    21 1
    10     6    29 2
    11     7     9 ar
    12     8    21 2
    13     9    11 ar
    14    10    20 1
    15    10    22 1
    16    11    13 ar
    17    11    14 1
    18    12    29 1
    19    12    30 1
    20    14    15 1
    21    15    16 2
    22    15    18 1
    23    17    18 2
    24    17    20 1
    25    18    19 1
    26    22    23 ar
    27    22    27 ar
    28    23    24 ar
    29    24    25 ar
    30    24    29 1
    31    25    26 ar
    32    26    27 ar
    33    27    28 1
    34    30    31 1
    35    30    32 1
    36    31    32 1
    37     1    33 1
    38     4    34 1
    39     7    35 1
    40     9    36 1
    41    10    37 1
    42    12    38 1
    43    13    39 1
    44    16    40 1
    45    19    41 1
    46    19    42 1
    47    19    43 1
    48    21    44 1
    49    23    45 1
    50    25    46 1
    51    26    47 1
    52    28    48 1
    53    28    49 1
    54    28    50 1
    55    30    51 1
    56    31    52 1
    57    31    53 1
    58    32    54 1
    59    32    55 1
@<TRIPOS>SUBSTRUCTURE
     1 NK0         1 TEMP              0 ****  ****    0 ROOT
