@<TRIPOS>MOLECULE
NK0
   55    59     1     0     0
SMALL
bcc


@<TRIPOS>ATOM
      1 C1           0.0000     0.0000     0.0000 ca         1 NK0      -0.113000
      2 N1          -3.8750    -1.7830     3.2360 na         1 NK0       0.792200
      3 O1          -0.2420     0.5280     4.6650 o          1 NK0      -0.577100
      4 C2           1.3840     0.0000     0.0000 ca         1 NK0      -0.077000
      5 N2          -6.1530    -2.3940     4.5960 nc         1 NK0      -0.796000
      6 O2          -8.7830    -5.0490     6.7260 o          1 NK0      -0.642100
      7 C3           2.0810     0.0000     1.1950 ca         1 NK0      -0.113000
      8 N3          -4.9020    -2.5460     2.6600 nd         1 NK0      -0.763800
      9 C4           1.4010     0.0010     2.3950 ca         1 NK0      -0.064500
     10 N4          -5.4400    -1.2520     6.5170 nu         1 NK0      -0.272300
     11 C5           0.0050     0.0020     2.4020 ca         1 NK0      -0.170600
     12 N5         -10.4630    -4.3730     8.0120 ns         1 NK0      -0.144900
     13 C6          -0.6930     0.0010     1.1920 ca         1 NK0      -0.064500
     14 C7          -0.7310     0.0020     3.6840 c          1 NK0       0.692900
     15 C8          -2.0560    -0.6350     3.7730 cc         1 NK0      -0.247200
     16 C9          -2.6860    -1.3680     2.7780 cd         1 NK0      -0.280100
     17 C10         -4.0390    -1.3380     4.5350 cd         1 NK0      -0.503600
     18 C11         -2.9200    -0.6200     4.8880 cc         1 NK0      -0.029200
     19 C12         -2.6670     0.0550     6.2120 c3         1 NK0       0.051100
     20 C13         -5.2360    -1.6720     5.2170 cd         1 NK0       0.629200
     21 C14         -5.9810    -2.8120     3.3430 cc         1 NK0       0.761900
     22 C15         -6.6750    -1.4680     7.1350 ca         1 NK0      -0.039400
     23 C16         -7.3330    -2.6760     6.9660 ca         1 NK0      -0.015000
     24 C17         -8.5650    -2.8860     7.5860 ca         1 NK0      -0.151600
     25 C18         -9.1260    -1.8790     8.3720 ca         1 NK0      -0.085000
     26 C19         -8.4630    -0.6790     8.5340 ca         1 NK0      -0.098000
     27 C20         -7.2400    -0.4730     7.9250 ca         1 NK0      -0.082300
     28 C21         -6.5200     0.8380     8.1110 c3         1 NK0       0.056200
     29 C22         -9.2730    -4.1720     7.4110 c          1 NK0       0.596700
     30 C23        -11.1650    -5.6460     7.8380 cx         1 NK0      -0.045300
     31 C24        -12.6860    -5.6440     8.0090 cx         1 NK0      -0.094900
     32 C25        -11.7970    -6.2810     9.0790 cx         1 NK0      -0.094900
     33 H1          -0.5400    -0.0000    -0.9390 ha         1 NK0       0.105500
     34 H2           1.9230    -0.0010    -0.9390 ha         1 NK0       0.102000
     35 H3           3.1650    -0.0000     1.1880 ha         1 NK0       0.105500
     36 H4           1.9490     0.0010     3.3290 ha         1 NK0       0.120000
     37 HN4         -4.6850    -0.8490     7.0360 hn         1 NK0       0.308800
     38 HN5        -10.8740    -3.6470     8.5640 hn         1 NK0       0.174500
     39 H6          -1.7760     0.0020     1.1900 ha         1 NK0       0.120000
     40 H9          -2.2820    -1.5750     1.7950 h4         1 NK0       0.174000
     41 H12         -3.4190     0.8160     6.3790 hc         1 NK0       0.022367
     42 H12A        -1.6850     0.5130     6.2020 hc         1 NK0       0.022367
     43 H12B        -2.7140    -0.6800     7.0060 hc         1 NK0       0.022367
     44 H14         -6.7620    -3.4010     2.8780 h5         1 NK0       0.009100
     45 H16         -6.8920    -3.4550     6.3550 ha         1 NK0       0.161000
     46 H18        -10.0840    -2.0380     8.8530 ha         1 NK0       0.101000
     47 H19         -8.9000     0.1010     9.1460 ha         1 NK0       0.111000
     48 H21         -5.5860     0.6660     8.6320 hc         1 NK0       0.012367
     49 H21A        -6.3170     1.2790     7.1420 hc         1 NK0       0.012367
     50 H21B        -7.1390     1.5110     8.6910 hc         1 NK0       0.012367
     51 H23        -10.7930    -6.3540     7.1070 h1         1 NK0       0.098700
     52 H24        -13.2290    -6.3380     7.3790 hc         1 NK0       0.047950
     53 H24A       -13.1250    -4.6900     8.2740 hc         1 NK0       0.047950
     54 H25        -11.6920    -5.7150     9.9970 hc         1 NK0       0.047950
     55 H25A       -11.7960    -7.3640     9.1020 hc         1 NK0       0.047950
@<TRIPOS>BOND
     1     1     4 ar  
     2     1    13 ar  
     3     1    33 1   
     4     2     8 1   
     5     2    16 1   
     6     2    17 1   
     7     3    14 2   
     8     4     7 ar  
     9     4    34 1   
    10     5    20 2   
    11     5    21 1   
    12     6    29 2   
    13     7     9 ar  
    14     7    35 1   
    15     8    21 2   
    16     9    11 ar  
    17     9    36 1   
    18    10    20 1   
    19    10    22 1   
    20    10    37 1   
    21    11    13 ar  
    22    11    14 1   
    23    12    29 1   
    24    12    30 1   
    25    12    38 1   
    26    13    39 1   
    27    14    15 1   
    28    15    16 2   
    29    15    18 1   
    30    16    40 1   
    31    17    18 2   
    32    17    20 1   
    33    18    19 1   
    34    19    41 1   
    35    19    42 1   
    36    19    43 1   
    37    21    44 1   
    38    22    23 ar  
    39    22    27 ar  
    40    23    24 ar  
    41    23    45 1   
    42    24    25 ar  
    43    24    29 1   
    44    25    26 ar  
    45    25    46 1   
    46    26    27 ar  
    47    26    47 1   
    48    27    28 1   
    49    28    48 1   
    50    28    49 1   
    51    28    50 1   
    52    30    31 1   
    53    30    32 1   
    54    30    51 1   
    55    31    32 1   
    56    31    52 1   
    57    31    53 1   
    58    32    54 1   
    59    32    55 1   
@<TRIPOS>SUBSTRUCTURE
     1 NK0         1 TEMP              0 ****  ****    0 ROOT
