@<TRIPOS>MOLECULE
NK1
   27    28     1     0     0
SMALL
bcc


@<TRIPOS>ATOM
      1 O7         -0.0480   -0.5350    0.1830 oh        1 NK1     -0.569800
      2 C7          1.2860   -0.1060    0.0290 c3        1 NK1      0.110100
      3 C6          1.9740    0.0220    1.3950 c3        1 NK1     -0.016400
      4 C5          1.7380    1.3820    2.0580 c3        1 NK1      0.162100
      5 O5          1.9940    1.2600    3.4460 oh        1 NK1     -0.589800
      6 C4          2.6540    2.4780    1.5210 c3        1 NK1     -0.105400
      7 C3          4.1170    2.1510    1.7200 c3        1 NK1     -0.079400
      8 C2          4.5560    0.9870    0.8640 c3        1 NK1      0.013900
      9 S1          3.6610   -0.4770    1.2210 s4        1 NK1     -0.134900
     10 C9          3.4830   -1.2100   -0.3710 c3        1 NK1      0.010900
     11 C8          2.0100   -1.2260   -0.7650 c3        1 NK1      0.157100
     12 O8          1.5180   -2.5020   -0.4130 oh        1 NK1     -0.584800
     13 HO7        -0.6000    0.2470    0.3150 ho        1 NK1      0.435000
     14 H7          1.3400    0.8690   -0.5300 h1        1 NK1      0.072700
     15 H6          1.5220   -0.7670    2.0720 h1        1 NK1      0.159700
     16 H5          0.6630    1.6700    1.8700 h1        1 NK1      0.071700
     17 HO5         1.1610    1.0460    3.8870 ho        1 NK1      0.433000
     18 H41         2.4270    2.6530    0.4380 hc        1 NK1      0.082200
     19 H42         2.4210    3.4260    2.0780 hc        1 NK1      0.082200
     20 H31         4.7400    3.0480    1.4500 hc        1 NK1      0.097200
     21 H32         4.3060    1.9330    2.8070 hc        1 NK1      0.097200
     22 H21         5.6350    0.7500    1.0870 h1        1 NK1      0.124700
     23 H22         4.5080    1.2820   -0.2160 h1        1 NK1      0.124700
     24 H91         3.8510   -2.2730   -0.2960 h1        1 NK1      0.146700
     25 H92         4.0910   -0.7060   -1.1630 h1        1 NK1      0.146700
     26 H8          1.8830   -1.0500   -1.8690 h1        1 NK1      0.097700
     27 HO8         0.5700   -2.5220   -0.6180 ho        1 NK1      0.454000
@<TRIPOS>BOND
     1    1    2 1   
     2    1   13 1   
     3    2    3 1   
     4    2   11 1   
     5    2   14 1   
     6    3    4 1   
     7    3    9 1   
     8    3   15 1   
     9    4    5 1   
    10    4    6 1   
    11    4   16 1   
    12    5   17 1   
    13    6    7 1   
    14    6   18 1   
    15    6   19 1   
    16    7    8 1   
    17    7   20 1   
    18    7   21 1   
    19    8    9 1   
    20    8   22 1   
    21    8   23 1   
    22    9   10 1   
    23   10   11 1   
    24   10   24 1   
    25   10   25 1   
    26   11   12 1   
    27   11   26 1   
    28   12   27 1   
@<TRIPOS>SUBSTRUCTURE
     1 NK1         1 TEMP              0 ****  ****    0 ROOT
