@<TRIPOS>MOLECULE
molecule
   27    28     1     0     0
SMALL
bcc


@<TRIPOS>ATOM
      1 O7           0.0000     0.0000     0.0000 oh         1 NK1      -0.551800
      2 C7           1.4190     0.0000     0.0000 c3         1 NK1       0.152100
      3 C6           1.9520     0.0000     1.4310 c3         1 NK1       0.127600
      4 C5           1.7590     1.2990     2.2190 c3         1 NK1       0.154100
      5 O5           2.0730     1.0710     3.5960 oh         1 NK1      -0.605800
      6 C4           2.5860     2.4900     1.7350 c3         1 NK1      -0.105400
      7 C3           4.0830     2.1880     1.6630 c3         1 NK1      -0.075400
      8 C2           4.3710     1.0560     0.6920 c3         1 NK1       0.100900
      9 S1           3.7130    -0.5230     1.3210 s4         1 NK1      -0.315900
     10 C9           3.4630    -1.3090    -0.3320 c3         1 NK1       0.085900
     11 C8           1.9690    -1.2750    -0.6360 c3         1 NK1       0.114100
     12 O8           1.3420    -2.4200    -0.0560 oh         1 NK1      -0.575800
     13 HO7         -0.3140     0.4180    -0.7840 ho         1 NK1       0.431000
     14 H7           1.7940     0.8660    -0.5320 h1         1 NK1       0.053700
     15 H6           1.4210    -0.7760     1.9680 h1         1 NK1       0.156700
     16 H5           0.7130     1.5740     2.1510 h1         1 NK1       0.087700
     17 HO5          1.3080     1.2320     4.1240 ho         1 NK1       0.438000
     18 H41          2.2420     2.7730     0.7480 hc         1 NK1       0.076700
     19 H42          2.4320     3.3190     2.4150 hc         1 NK1       0.076700
     20 H31          4.6070     3.0770     1.3360 hc         1 NK1       0.090200
     21 H32          4.4340     1.9050     2.6490 hc         1 NK1       0.090200
     22 H21          5.4420     0.9670     0.5600 h1         1 NK1       0.107700
     23 H22          3.9060     1.2800    -0.2610 h1         1 NK1       0.107700
     24 H91          3.8080    -2.3360    -0.3050 h1         1 NK1       0.124700
     25 H92          4.0030    -0.7530    -1.0880 h1         1 NK1       0.124700
     26 H8           1.8070    -1.2560    -1.7070 h1         1 NK1       0.090700
     27 HO8          1.1450    -3.0460    -0.7320 ho         1 NK1       0.437000
@<TRIPOS>BOND
     1     1     2 1
     2     1    13 1
     3     2     3 1
     4     2    11 1
     5     2    14 1
     6     3     4 1
     7     3     9 1
     8     3    15 1
     9     4     5 1
    10     4     6 1
    11     4    16 1
    12     5    17 1
    13     6     7 1
    14     6    18 1
    15     6    19 1
    16     7     8 1
    17     7    20 1
    18     7    21 1
    19     8     9 1
    20     8    22 1
    21     8    23 1
    22     9    10 1
    23    10    11 1
    24    10    24 1
    25    10    25 1
    26    11    12 1
    27    11    26 1
    28    12    27 1
@<TRIPOS>SUBSTRUCTURE
     1 NK1         1 TEMP              0 ****  ****    0 ROOT
