@<TRIPOS>MOLECULE
NK2
   26    27     1     0     0
SMALL
bcc


@<TRIPOS>ATOM
      1 O7         -0.0320   -0.5570    0.0720 oh        1 NK2     -0.569800
      2 C7          1.3070   -0.1290   -0.0330 c3        1 NK2      0.108100
      3 C6          1.9430    0.0250    1.3580 c3        1 NK2      0.031600
      4 C5          1.7060    1.3780    1.9840 c3        1 NK2     -0.079400
      5 C4          2.6100    2.4720    1.4580 c3        1 NK2     -0.108400
      6 C3          4.0710    2.1690    1.7100 c3        1 NK2     -0.083400
      7 C2          4.5480    0.9890    0.8990 c3        1 NK2      0.023900
      8 S1          3.6410   -0.4750    1.2430 s4        1 NK2     -0.183900
      9 C9          3.5180   -1.2340   -0.3440 c3        1 NK2      0.026900
     10 C8          2.0570   -1.2620   -0.7810 c3        1 NK2      0.157100
     11 O8          1.5590   -2.5330   -0.4190 oh        1 NK2     -0.586800
     12 HO7        -0.5720    0.2120    0.3030 ho        1 NK2      0.437000
     13 H7          1.3790    0.8370   -0.6030 h1        1 NK2      0.073700
     14 H6          1.4670   -0.7610    2.0220 h1        1 NK2      0.155700
     15 H51         1.8330    1.2960    3.0990 hc        1 NK2      0.083200
     16 H52         0.6340    1.6650    1.8010 hc        1 NK2      0.083200
     17 H41         2.4330    2.6350    0.3620 hc        1 NK2      0.077700
     18 H42         2.3450    3.4330    1.9790 hc        1 NK2      0.077700
     19 H31         4.6910    3.0660    1.4290 hc        1 NK2      0.088200
     20 H32         4.2450    1.9860    2.8040 hc        1 NK2      0.088200
     21 H21         4.5400    1.2610   -0.1890 h1        1 NK2      0.124700
     22 H22         5.6170    0.7570    1.1670 h1        1 NK2      0.124700
     23 H91         3.8890   -2.2940   -0.2400 h1        1 NK2      0.146700
     24 H92         4.1480   -0.7370   -1.1210 h1        1 NK2      0.146700
     25 H8          1.9640   -1.1080   -1.8920 h1        1 NK2      0.098700
     26 HO8         0.6180   -2.5610   -0.6540 ho        1 NK2      0.456000
@<TRIPOS>BOND
     1    1    2 1   
     2    1   12 1   
     3    2    3 1   
     4    2   10 1   
     5    2   13 1   
     6    3    4 1   
     7    3    8 1   
     8    3   14 1   
     9    4    5 1   
    10    4   15 1   
    11    4   16 1   
    12    5    6 1   
    13    5   17 1   
    14    5   18 1   
    15    6    7 1   
    16    6   19 1   
    17    6   20 1   
    18    7    8 1   
    19    7   21 1   
    20    7   22 1   
    21    8    9 1   
    22    9   10 1   
    23    9   23 1   
    24    9   24 1   
    25   10   11 1   
    26   10   25 1   
    27   11   26 1   
@<TRIPOS>SUBSTRUCTURE
     1 NK2         1 TEMP              0 ****  ****    0 ROOT
