@<TRIPOS>MOLECULE
molecule
   26    27     1     0     0
SMALL
bcc


@<TRIPOS>ATOM
      1 O7           0.0000     0.0000     0.0000 oh         1 NK2      -0.547800
      2 C7           1.4200     0.0000     0.0000 c3         1 NK2       0.152100
      3 C6           1.9550     0.0000     1.4290 c3         1 NK2       0.144600
      4 C5           1.7770     1.2930     2.2230 c3         1 NK2      -0.076400
      5 C4           2.5820     2.4860     1.7120 c3         1 NK2      -0.099400
      6 C3           4.0760     2.1870     1.6410 c3         1 NK2      -0.081400
      7 C2           4.3710     1.0430     0.6860 c3         1 NK2       0.110900
      8 S1           3.7080    -0.5310     1.3280 s4         1 NK2      -0.365900
      9 C9           3.4610    -1.3300    -0.3200 c3         1 NK2       0.101900
     10 C8           1.9720    -1.2690    -0.6490 c3         1 NK2       0.112100
     11 O8           1.3170    -2.4350    -0.1460 oh         1 NK2      -0.572800
     12 HO7         -0.3140     0.4360    -0.7740 ho         1 NK2       0.430000
     13 H7           1.7910     0.8700    -0.5280 h1         1 NK2       0.054700
     14 H6           1.4200    -0.7730     1.9660 h1         1 NK2       0.150700
     15 H51          2.0680     1.1030     3.2490 hc         1 NK2       0.089200
     16 H52          0.7270     1.5600     2.2050 hc         1 NK2       0.089200
     17 H41          2.4240     3.3260     2.3790 hc         1 NK2       0.074200
     18 H42          2.2300     2.7470     0.7210 hc         1 NK2       0.074200
     19 H31          4.5970     3.0740     1.3000 hc         1 NK2       0.084200
     20 H32          4.4300     1.9210     2.6300 hc         1 NK2       0.084200
     21 H21          5.4430     0.9510     0.5630 h1         1 NK2       0.109200
     22 H22          3.9140     1.2550    -0.2730 h1         1 NK2       0.109200
     23 H91          3.7840    -2.3630    -0.2770 h1         1 NK2       0.125200
     24 H92          4.0240    -0.7940    -1.0740 h1         1 NK2       0.125200
     25 H8           1.8420    -1.2100    -1.7230 h1         1 NK2       0.086700
     26 HO8          1.1260    -3.0200    -0.8600 ho         1 NK2       0.437000
@<TRIPOS>BOND
     1     1     2 1
     2     1    12 1
     3     2     3 1
     4     2    10 1
     5     2    13 1
     6     3     4 1
     7     3     8 1
     8     3    14 1
     9     4     5 1
    10     4    15 1
    11     4    16 1
    12     5     6 1
    13     5    17 1
    14     5    18 1
    15     6     7 1
    16     6    19 1
    17     6    20 1
    18     7     8 1
    19     7    21 1
    20     7    22 1
    21     8     9 1
    22     9    10 1
    23     9    23 1
    24     9    24 1
    25    10    11 1
    26    10    25 1
    27    11    26 1
@<TRIPOS>SUBSTRUCTURE
     1 NK2         1 TEMP              0 ****  ****    0 ROOT
