@<TRIPOS>MOLECULE
molecule
   68    71     1     0     0
SMALL
bcc


@<TRIPOS>ATOM
      1 C1           0.0000     0.0000     0.0000 c3         1 NK7       0.120500
      2 C2           1.5420     0.0000     0.0000 c3         1 NK7       0.240500
      3 C3           1.9440     0.0000     1.4900 c3         1 NK7       0.129800
      4 N4           0.7710     0.5820     2.1940 n7         1 NK7      -0.797200
      5 C5          -0.4020     0.0020     1.4910 c3         1 NK7       0.102800
      6 N6          -0.5120    -1.2050    -0.6650 n7         1 NK7      -0.817200
      7 C7          -1.8600    -0.9800    -1.2020 c3         1 NK7       0.199100
      8 C8          -2.3500    -2.2360    -1.8750 ca         1 NK7      -0.034300
      9 C9          -3.0490    -3.1820    -1.1490 ca         1 NK7      -0.154500
     10 C10         -3.4990    -4.3340    -1.7660 ca         1 NK7      -0.067500
     11 C11         -3.2490    -4.5400    -3.1100 ca         1 NK7      -0.181300
     12 C12         -2.5500    -3.5940    -3.8370 ca         1 NK7      -0.067500
     13 C13         -2.1050    -2.4390    -3.2210 ca         1 NK7      -0.154500
     14 C14         -0.6420     2.8680     0.2670 ca         1 NK7      -0.135000
     15 C15         -1.8710     3.3450    -0.1510 ca         1 NK7      -0.088500
     16 C16         -1.9840     3.9930    -1.3670 ca         1 NK7      -0.177300
     17 C17         -3.3230     4.5110    -1.8230 c3         1 NK7       0.674200
     18 F18         -3.4920     5.8250    -1.3720 f          1 NK7      -0.220633
     19 F19         -3.3820     4.4870    -3.2210 f          1 NK7      -0.220633
     20 F20         -4.3380     3.7040    -1.2990 f          1 NK7      -0.220633
     21 N21          2.0510     1.2020    -0.6640 n3         1 NK7      -0.793500
     22 C22          1.8120     2.5220    -0.0750 c3         1 NK7       0.261100
     23 C23          0.4740     3.0410    -0.5300 ca         1 NK7      -0.086300
     24 C24         -0.8680     4.1650    -2.1650 ca         1 NK7      -0.088500
     25 C25          0.3610     3.6880    -1.7470 ca         1 NK7      -0.135000
     26 C26         -1.1320     0.6810    -6.5250 c          1 NK7       0.503700
     27 S27          2.8970     1.0690    -2.0820 sy         1 NK7       1.406200
     28 O28          3.5760     2.3050    -2.2620 o          1 NK7      -0.606800
     29 O29          3.5640    -0.1850    -2.0360 o          1 NK7      -0.606800
     30 C30          1.7160     0.9550    -3.3860 ca         1 NK7      -0.246500
     31 C31          1.3680     2.0870    -4.0990 ca         1 NK7      -0.014500
     32 C32          0.4440     2.0050    -5.1210 ca         1 NK7      -0.091500
     33 C34          0.2200    -0.3640    -4.7120 ca         1 NK7      -0.091500
     34 C35          1.1450    -0.2670    -3.6920 ca         1 NK7      -0.014500
     35 N36         -1.6940    -0.5060    -6.8230 nz         1 NK7      -0.679400
     36 O37         -1.4400     1.6740    -7.1530 o          1 NK7      -0.409100
     37 C38         -3.7380    -5.7960    -3.7830 c3         1 NK7       0.674200
     38 F39         -5.0230    -5.5820    -4.2940 f          1 NK7      -0.216300
     39 F40         -2.8710    -6.1340    -4.8280 f          1 NK7      -0.216300
     40 F41         -3.7740    -6.8400    -2.8520 f          1 NK7      -0.216300
     41 C42         -0.1410     0.7770    -5.4320 ca         1 NK7      -0.175600
     42 H1          -0.3730     0.8920    -0.4880 h1         1 NK7       0.091700
     43 H2           1.9150    -0.8920    -0.4870 h1         1 NK7       0.101700
     44 H3           2.1230    -1.0120     1.8320 h1         1 NK7       0.064200
     45 H3A          2.8200     0.6180     1.6440 h1         1 NK7       0.064200
     46 HN4          0.7710     0.2800     3.1480 hn         1 NK7       0.365800
     47 H5          -1.2770     0.6220     1.6440 h1         1 NK7       0.048700
     48 H5A         -0.5830    -1.0100     1.8330 h1         1 NK7       0.048700
     49 HN6         -0.5360    -1.9620    -0.0100 hn         1 NK7       0.368800
     50 H7          -2.5320    -0.7180    -0.3940 h1         1 NK7       0.044700
     51 H7A         -1.8300    -0.1720    -1.9230 h1         1 NK7       0.044700
     52 H9          -3.2780    -3.0030    -0.1050 ha         1 NK7       0.132000
     53 H10         -4.0650    -5.0650    -1.2030 ha         1 NK7       0.148000
     54 H12         -2.3290    -3.7680    -4.8830 ha         1 NK7       0.148000
     55 H13         -2.5630    -1.6570    -3.8140 ha         1 NK7       0.132000
     56 H14         -0.5540     2.3610     1.2200 ha         1 NK7       0.156500
     57 H15         -2.7460     3.2100     0.4740 ha         1 NK7       0.150000
     58 H22          2.5910     3.2050    -0.3920 h1         1 NK7       0.097200
     59 H22A         1.8200     2.4410     1.0050 h1         1 NK7       0.097200
     60 H24         -0.9570     4.6720    -3.1180 ha         1 NK7       0.150000
     61 H25          1.2350     3.8230    -2.3720 ha         1 NK7       0.156500
     62 H31          1.8220     3.0400    -3.8570 ha         1 NK7       0.185500
     63 H32          0.1720     2.8930    -5.6790 ha         1 NK7       0.147000
     64 H34         -0.2260    -1.3210    -4.9510 ha         1 NK7       0.147000
     65 H35          1.4260    -1.1510    -3.1320 ha         1 NK7       0.185500
     66 HN36        -2.1940    -0.4310    -7.6870 hn         1 NK7       0.479133
     67 HN3A        -0.9790    -1.2010    -6.9100 hn         1 NK7       0.479133
     68 H363        -2.3270    -0.7680    -6.0930 hn         1 NK7       0.479133
@<TRIPOS>BOND
     1     1     2 1
     2     1     5 1
     3     1     6 1
     4     2     3 1
     5     2    21 1
     6     3     4 1
     7     4     5 1
     8     6     7 1
     9     7     8 1
    10     8     9 ar
    11     8    13 ar
    12     9    10 ar
    13    10    11 ar
    14    11    12 ar
    15    11    37 1
    16    12    13 ar
    17    14    15 ar
    18    14    23 ar
    19    15    16 ar
    20    16    17 1
    21    16    24 ar
    22    17    18 1
    23    17    19 1
    24    17    20 1
    25    21    22 1
    26    21    27 1
    27    22    23 1
    28    23    25 ar
    29    24    25 ar
    30    26    35 1
    31    26    36 2
    32    26    41 1
    33    27    28 2
    34    27    29 2
    35    27    30 1
    36    30    31 ar
    37    30    34 ar
    38    31    32 ar
    39    32    41 ar
    40    33    34 ar
    41    33    41 ar
    42    37    38 1
    43    37    39 1
    44    37    40 1
    45     1    42 1
    46     2    43 1
    47     3    44 1
    48     3    45 1
    49     4    46 1
    50     5    47 1
    51     5    48 1
    52     6    49 1
    53     7    50 1
    54     7    51 1
    55     9    52 1
    56    10    53 1
    57    12    54 1
    58    13    55 1
    59    14    56 1
    60    15    57 1
    61    22    58 1
    62    22    59 1
    63    24    60 1
    64    25    61 1
    65    31    62 1
    66    32    63 1
    67    33    64 1
    68    34    65 1
    69    35    66 1
    70    35    67 1
    71    68    35 1
@<TRIPOS>SUBSTRUCTURE
     1 NK7         1 TEMP              0 ****  ****    0 ROOT
