@<TRIPOS>MOLECULE
NK7
   68    71     1     0     0
SMALL
bcc


@<TRIPOS>ATOM
      1 C1           0.0000     0.0000     0.0000 c3         1 NK7       0.046500
      2 C2           1.5420     0.0000     0.0000 c3         1 NK7       0.202500
      3 C3           1.9440     0.0000     1.4900 c3         1 NK7       0.128800
      4 N4           0.7710     0.5820     2.1940 n7         1 NK7      -0.582200
      5 C5          -0.4020     0.0020     1.4910 c3         1 NK7       0.109800
      6 N6          -0.5120    -1.2050    -0.6650 n7         1 NK7      -0.580200
      7 C7          -1.8600    -0.9800    -1.2020 c3         1 NK7       0.194100
      8 C8          -2.3500    -2.2360    -1.8750 ca         1 NK7      -0.029300
      9 C9          -3.0490    -3.1820    -1.1490 ca         1 NK7      -0.137000
     10 C10         -3.4990    -4.3340    -1.7660 ca         1 NK7      -0.019500
     11 C11         -3.2490    -4.5400    -3.1100 ca         1 NK7      -0.213300
     12 C12         -2.5500    -3.5940    -3.8370 ca         1 NK7      -0.019500
     13 C13         -2.1050    -2.4390    -3.2210 ca         1 NK7      -0.137000
     14 C14         -0.6420     2.8680     0.2670 ca         1 NK7      -0.123500
     15 C15         -1.8710     3.3450    -0.1510 ca         1 NK7      -0.046500
     16 C16         -1.9840     3.9930    -1.3670 ca         1 NK7      -0.211300
     17 C17         -3.3230     4.5110    -1.8230 c3         1 NK7       0.641200
     18 F18         -3.4920     5.8250    -1.3720 f          1 NK7      -0.205967
     19 F19         -3.3820     4.4870    -3.2210 f          1 NK7      -0.205967
     20 F20         -4.3380     3.7040    -1.2990 f          1 NK7      -0.205967
     21 N21          2.0510     1.2020    -0.6640 n3         1 NK7      -0.498500
     22 C22          1.8120     2.5220    -0.0750 c3         1 NK7       0.255100
     23 C23          0.4740     3.0410    -0.5300 ca         1 NK7      -0.082300
     24 C24         -0.8680     4.1650    -2.1650 ca         1 NK7      -0.046500
     25 C25          0.3610     3.6880    -1.7470 ca         1 NK7      -0.123500
     26 C26         -1.1320     0.6810    -6.5250 c          1 NK7       0.352700
     27 S27          2.8970     1.0690    -2.0820 sy         1 NK7       1.044200
     28 O28          3.5760     2.3050    -2.2620 o          1 NK7      -0.563800
     29 O29          3.5640    -0.1850    -2.0360 o          1 NK7      -0.563800
     30 C30          1.7160     0.9550    -3.3860 ca         1 NK7      -0.095500
     31 C31          1.3680     2.0870    -4.0990 ca         1 NK7       0.017500
     32 C32          0.4440     2.0050    -5.1210 ca         1 NK7      -0.066500
     33 C34          0.2200    -0.3640    -4.7120 ca         1 NK7      -0.066500
     34 C35          1.1450    -0.2670    -3.6920 ca         1 NK7       0.017500
     35 N36         -1.6940    -0.5060    -6.8230 nz         1 NK7       0.194600
     36 O37         -1.4400     1.6740    -7.1530 o          1 NK7      -0.418100
     37 C38         -3.7380    -5.7960    -3.7830 c3         1 NK7       0.641200
     38 F39         -5.0230    -5.5820    -4.2940 f          1 NK7      -0.201633
     39 F40         -2.8710    -6.1340    -4.8280 f          1 NK7      -0.201633
     40 F41         -3.7740    -6.8400    -2.8520 f          1 NK7      -0.201633
     41 C42         -0.1410     0.7770    -5.4320 ca         1 NK7      -0.199600
     42 H1          -0.3730     0.8920    -0.4880 h1         1 NK7       0.073700
     43 H2           1.9150    -0.8920    -0.4870 h1         1 NK7       0.072700
     44 H3           2.1230    -1.0120     1.8320 h1         1 NK7       0.032200
     45 H3A          2.8200     0.6180     1.6440 h1         1 NK7       0.032200
     46 HN4          0.7710     0.2800     3.1480 hn         1 NK7       0.269800
     47 H5          -1.2770     0.6220     1.6440 h1         1 NK7       0.021700
     48 H5A         -0.5830    -1.0100     1.8330 h1         1 NK7       0.021700
     49 HN6         -0.5360    -1.9620    -0.0100 hn         1 NK7       0.271800
     50 H7          -2.5320    -0.7180    -0.3940 h1         1 NK7       0.014200
     51 H7A         -1.8300    -0.1720    -1.9230 h1         1 NK7       0.014200
     52 H9          -3.2780    -3.0030    -0.1050 ha         1 NK7       0.108000
     53 H10         -4.0650    -5.0650    -1.2030 ha         1 NK7       0.115500
     54 H12         -2.3290    -3.7680    -4.8830 ha         1 NK7       0.115500
     55 H13         -2.5630    -1.6570    -3.8140 ha         1 NK7       0.108000
     56 H14         -0.5540     2.3610     1.2200 ha         1 NK7       0.138000
     57 H15         -2.7460     3.2100     0.4740 ha         1 NK7       0.120500
     58 H22          2.5910     3.2050    -0.3920 h1         1 NK7       0.061700
     59 H22A         1.8200     2.4410     1.0050 h1         1 NK7       0.061700
     60 H24         -0.9570     4.6720    -3.1180 ha         1 NK7       0.120500
     61 H25          1.2350     3.8230    -2.3720 ha         1 NK7       0.138000
     62 H31          1.8220     3.0400    -3.8570 ha         1 NK7       0.153500
     63 H32          0.1720     2.8930    -5.6790 ha         1 NK7       0.118000
     64 H34         -0.2260    -1.3210    -4.9510 ha         1 NK7       0.118000
     65 H35          1.4260    -1.1510    -3.1320 ha         1 NK7       0.153500
     66 HN36        -2.1940    -0.4310    -7.6870 hn         1 NK7       0.249467
     67 HN3A        -0.9790    -1.2010    -6.9100 hn         1 NK7       0.249467
     68 H363        -2.3270    -0.7680    -6.0930 hn         1 NK7       0.249467
@<TRIPOS>BOND
     1     1     2 1   
     2     1     5 1   
     3     1     6 1   
     4     1    42 1   
     5     2     3 1   
     6     2    21 1   
     7     2    43 1   
     8     3     4 1   
     9     3    44 1   
    10     3    45 1   
    11     4     5 1   
    12     4    46 1   
    13     5    47 1   
    14     5    48 1   
    15     6     7 1   
    16     6    49 1   
    17     7     8 1   
    18     7    50 1   
    19     7    51 1   
    20     8     9 ar  
    21     8    13 ar  
    22     9    10 ar  
    23     9    52 1   
    24    10    11 ar  
    25    10    53 1   
    26    11    12 ar  
    27    11    37 1   
    28    12    13 ar  
    29    12    54 1   
    30    13    55 1   
    31    14    15 ar  
    32    14    23 ar  
    33    14    56 1   
    34    15    16 ar  
    35    15    57 1   
    36    16    17 1   
    37    16    24 ar  
    38    17    18 1   
    39    17    19 1   
    40    17    20 1   
    41    21    22 1   
    42    21    27 1   
    43    22    23 1   
    44    22    58 1   
    45    22    59 1   
    46    23    25 ar  
    47    24    25 ar  
    48    24    60 1   
    49    25    61 1   
    50    26    35 1   
    51    26    36 2   
    52    26    41 1   
    53    27    28 2   
    54    27    29 2   
    55    27    30 1   
    56    30    31 ar  
    57    30    34 ar  
    58    31    32 ar  
    59    31    62 1   
    60    32    41 ar  
    61    32    63 1   
    62    33    34 ar  
    63    33    41 ar  
    64    33    64 1   
    65    34    65 1   
    66    35    66 1   
    67    35    67 1   
    68    35    68 1   
    69    37    38 1   
    70    37    39 1   
    71    37    40 1   
@<TRIPOS>SUBSTRUCTURE
     1 NK7         1 TEMP              0 ****  ****    0 ROOT
