@<TRIPOS>MOLECULE
NK8
   70    73     1     0     0
SMALL
bcc


@<TRIPOS>ATOM
      1 C1           0.0000     0.0000     0.0000 ca         1 NK8      -0.111000
      2 C2           1.3820     0.0000     0.0000 ca         1 NK8      -0.045500
      3 C3           2.0730     0.0000     1.1980 ca         1 NK8      -0.200300
      4 C4           3.5790    -0.0000     1.1980 c3         1 NK8       0.640200
      5 F5           4.0470     1.3190     1.1990 f          1 NK8      -0.203967
      6 F6           4.0450    -0.6590     2.3420 f          1 NK8      -0.203967
      7 F7           4.0460    -0.6610     0.0570 f          1 NK8      -0.203967
      8 C8           1.3800     0.0020     2.3950 ca         1 NK8      -0.045500
      9 C9          -0.0020     0.0020     2.3950 ca         1 NK8      -0.111000
     10 C10         -0.6920     0.0000     1.1970 ca         1 NK8      -0.110300
     11 C11         -2.1990     0.0010     1.1960 c3         1 NK8       0.281100
     12 N12         -2.6880    -1.3710     1.3610 n3         1 NK8      -0.513500
     13 S13         -3.0430    -1.9480     2.8710 sy         1 NK8       1.051200
     14 C14         -4.7380    -1.5840     3.1830 ca         1 NK8      -0.100500
     15 C15         -5.7150    -2.4980     2.8290 ca         1 NK8       0.018000
     16 C16         -7.0440    -2.2200     3.0710 ca         1 NK8      -0.061000
     17 C17         -7.4030    -1.0140     3.6750 ca         1 NK8      -0.190600
     18 C18         -8.8260    -0.7100     3.9370 c          1 NK8       0.352700
     19 O19         -9.6860    -1.5110     3.6270 o          1 NK8      -0.409100
     20 N20         -9.1690     0.4560     4.5220 nz         1 NK8       0.200600
     21 C21         -6.4130    -0.0970     4.0310 ca         1 NK8      -0.061000
     22 C22         -5.0860    -0.3890     3.7880 ca         1 NK8       0.018000
     23 O23         -2.9430    -3.3630     2.7940 o          1 NK8      -0.575800
     24 O24         -2.2900    -1.1650     3.7870 o          1 NK8      -0.575800
     25 C25         -2.8630    -2.2320     0.1870 c3         1 NK8       0.199500
     26 C26         -1.4970    -2.5420    -0.4580 c3         1 NK8       0.064500
     27 N27         -1.2730    -3.9920    -0.5080 n7         1 NK8      -0.579200
     28 C28          0.1620    -4.3030    -0.5430 c3         1 NK8       0.184100
     29 C29          0.3510    -5.7980    -0.5930 ca         1 NK8      -0.007300
     30 C30          0.4160    -6.4420    -1.8160 ca         1 NK8      -0.075000
     31 C31          0.5900    -7.8110    -1.8690 ca         1 NK8      -0.029000
     32 C32          0.6990    -8.5430    -0.6860 ca         1 NK8      -0.242600
     33 C33          0.8860   -10.0100    -0.7360 c          1 NK8       0.356700
     34 N34          0.9900   -10.7140     0.4080 nz         1 NK8       0.200600
     35 O35          0.9440   -10.5790    -1.8080 o          1 NK8      -0.423100
     36 C36          0.6330    -7.8860     0.5440 ca         1 NK8      -0.029000
     37 C37          0.4650    -6.5180     0.5830 ca         1 NK8      -0.075000
     38 C38         -1.5870    -1.9630    -1.8870 c3         1 NK8       0.138800
     39 N40         -2.6300    -0.9090    -1.7980 n7         1 NK8      -0.581200
     40 C41         -3.6640    -1.4930    -0.9050 c3         1 NK8       0.125800
     41 H1          -0.5410    -0.0010    -0.9380 ha         1 NK8       0.146000
     42 H2           1.9240    -0.0000    -0.9380 ha         1 NK8       0.125000
     43 H8           1.9220     0.0020     3.3330 ha         1 NK8       0.125000
     44 H9          -0.5440     0.0030     3.3330 ha         1 NK8       0.146000
     45 H11         -2.5590     0.4020     0.2560 h1         1 NK8       0.038700
     46 H11A        -2.5600     0.6140     2.0130 h1         1 NK8       0.038700
     47 H15         -5.4350    -3.4330     2.3600 ha         1 NK8       0.145000
     48 H16         -7.8080    -2.9370     2.7930 ha         1 NK8       0.116000
     49 HN20       -10.1640     0.4980     4.6230 hn         1 NK8       0.250800
     50 HN2A        -8.8590     1.2180     3.9520 hn         1 NK8       0.250800
     51 H21         -6.6850     0.8400     4.5020 ha         1 NK8       0.116000
     52 H22         -4.3170     0.3220     4.0630 ha         1 NK8       0.145000
     53 H25         -3.3640    -3.1520     0.4610 h1         1 NK8       0.054700
     54 H26         -0.7030    -2.0520     0.0940 h1         1 NK8       0.066700
     55 HN27        -1.6880    -4.4220     0.2960 hn         1 NK8       0.269800
     56 H28          0.6390    -3.9080     0.3460 h1         1 NK8       0.028200
     57 H28A         0.6080    -3.8530    -1.4210 h1         1 NK8       0.028200
     58 H30          0.3310    -5.8720    -2.7330 ha         1 NK8       0.133500
     59 H31          0.6400    -8.3150    -2.8260 ha         1 NK8       0.109500
     60 HN34         0.1590   -10.5940     0.9520 hn         1 NK8       0.247467
     61 HN3A         1.7800   -10.3880     0.9300 hn         1 NK8       0.247467
     62 H36          0.7190    -8.4490     1.4650 ha         1 NK8       0.109500
     63 H37          0.4130    -6.0070     1.5370 ha         1 NK8       0.133500
     64 H38         -1.8900    -2.7340    -2.5860 h1         1 NK8       0.029200
     65 H38A        -0.6380    -1.5300    -2.1790 h1         1 NK8       0.029200
     66 HN40        -3.0230    -0.7510    -2.7050 hn         1 NK8       0.270800
     67 H41         -4.2670    -0.7080    -0.4640 h1         1 NK8       0.019700
     68 H41A        -4.2850    -2.1910    -1.4540 h1         1 NK8       0.019700
     69 H203        -8.7290     0.5220     5.4180 hn         1 NK8       0.250800
     70 H343         1.1050   -11.6850     0.1930 hn         1 NK8       0.247467
@<TRIPOS>BOND
     1     1     2 ar  
     2     1    10 ar  
     3     1    41 1   
     4     2     3 ar  
     5     2    42 1   
     6     3     4 1   
     7     3     8 ar  
     8     4     5 1   
     9     4     6 1   
    10     4     7 1   
    11     8     9 ar  
    12     8    43 1   
    13     9    10 ar  
    14     9    44 1   
    15    10    11 1   
    16    11    12 1   
    17    11    45 1   
    18    11    46 1   
    19    12    13 1   
    20    12    25 1   
    21    13    14 1   
    22    13    23 2   
    23    13    24 2   
    24    14    15 ar  
    25    14    22 ar  
    26    15    16 ar  
    27    15    47 1   
    28    16    17 ar  
    29    16    48 1   
    30    17    18 1   
    31    17    21 ar  
    32    18    19 2   
    33    18    20 1   
    34    20    49 1   
    35    20    50 1   
    36    20    69 1   
    37    21    22 ar  
    38    21    51 1   
    39    22    52 1   
    40    25    26 1   
    41    25    40 1   
    42    25    53 1   
    43    26    27 1   
    44    26    38 1   
    45    26    54 1   
    46    27    28 1   
    47    27    55 1   
    48    28    29 1   
    49    28    56 1   
    50    28    57 1   
    51    29    30 ar  
    52    29    37 ar  
    53    30    31 ar  
    54    30    58 1   
    55    31    32 ar  
    56    31    59 1   
    57    32    33 1   
    58    32    36 ar  
    59    33    34 1   
    60    33    35 2   
    61    34    60 1   
    62    34    61 1   
    63    34    70 1   
    64    36    37 ar  
    65    36    62 1   
    66    37    63 1   
    67    38    39 1   
    68    38    64 1   
    69    38    65 1   
    70    39    40 1   
    71    39    66 1   
    72    40    67 1   
    73    40    68 1   
@<TRIPOS>SUBSTRUCTURE
     1 NK8         1 TEMP              0 ****  ****    0 ROOT
