@<TRIPOS>MOLECULE
molecule
   70    73     1     0     0
SMALL
bcc


@<TRIPOS>ATOM
      1 C1           0.0000     0.0000     0.0000 ca         1 NK8      -0.126000
      2 C2           1.3820     0.0000     0.0000 ca         1 NK8      -0.088500
      3 C3           2.0730     0.0000     1.1980 ca         1 NK8      -0.168300
      4 C4           3.5790    -0.0000     1.1980 c3         1 NK8       0.674200
      5 F5           4.0470     1.3190     1.1990 f          1 NK8      -0.218300
      6 F6           4.0450    -0.6590     2.3420 f          1 NK8      -0.218300
      7 F7           4.0460    -0.6610     0.0570 f          1 NK8      -0.218300
      8 C8           1.3800     0.0020     2.3950 ca         1 NK8      -0.088500
      9 C9          -0.0020     0.0020     2.3950 ca         1 NK8      -0.126000
     10 C10         -0.6920     0.0000     1.1970 ca         1 NK8      -0.106300
     11 C11         -2.1990     0.0010     1.1960 c3         1 NK8       0.277100
     12 N12         -2.6880    -1.3710     1.3610 n3         1 NK8      -0.804500
     13 S13         -3.0430    -1.9480     2.8710 sy         1 NK8       1.410200
     14 C14         -4.7380    -1.5840     3.1830 ca         1 NK8      -0.252500
     15 C15         -5.7150    -2.4980     2.8290 ca         1 NK8      -0.021000
     16 C16         -7.0440    -2.2200     3.0710 ca         1 NK8      -0.088500
     17 C17         -7.4030    -1.0140     3.6750 ca         1 NK8      -0.166600
     18 C18         -8.8260    -0.7100     3.9370 c          1 NK8       0.504700
     19 O19         -9.6860    -1.5110     3.6270 o          1 NK8      -0.399100
     20 N20         -9.1690     0.4560     4.5220 nz         1 NK8      -0.680400
     21 C21         -6.4130    -0.0970     4.0310 ca         1 NK8      -0.088500
     22 C22         -5.0860    -0.3890     3.7880 ca         1 NK8      -0.021000
     23 O23         -2.9430    -3.3630     2.7940 o          1 NK8      -0.617800
     24 O24         -2.2900    -1.1650     3.7870 o          1 NK8      -0.617800
     25 C25         -2.8630    -2.2320     0.1870 c3         1 NK8       0.230500
     26 C26         -1.4970    -2.5420    -0.4580 c3         1 NK8       0.136500
     27 N27         -1.2730    -3.9920    -0.5080 n7         1 NK8      -0.816200
     28 C28          0.1620    -4.3030    -0.5430 c3         1 NK8       0.190100
     29 C29          0.3510    -5.7980    -0.5930 ca         1 NK8      -0.007300
     30 C30          0.4160    -6.4420    -1.8160 ca         1 NK8      -0.107000
     31 C31          0.5900    -7.8110    -1.8690 ca         1 NK8      -0.066000
     32 C32          0.6990    -8.5430    -0.6860 ca         1 NK8      -0.216600
     33 C33          0.8860   -10.0100    -0.7360 c          1 NK8       0.506700
     34 N34          0.9900   -10.7140     0.4080 nz         1 NK8      -0.679400
     35 O35          0.9440   -10.5790    -1.8080 o          1 NK8      -0.412100
     36 C36          0.6330    -7.8860     0.5440 ca         1 NK8      -0.066000
     37 C37          0.4650    -6.5180     0.5830 ca         1 NK8      -0.107000
     38 C38         -1.5870    -1.9630    -1.8870 c3         1 NK8       0.140800
     39 N40         -2.6300    -0.9090    -1.7980 n7         1 NK8      -0.796200
     40 C41         -3.6640    -1.4930    -0.9050 c3         1 NK8       0.126800
     41 H1          -0.5410    -0.0010    -0.9380 ha         1 NK8       0.166000
     42 H2           1.9240    -0.0000    -0.9380 ha         1 NK8       0.156000
     43 H8           1.9220     0.0020     3.3330 ha         1 NK8       0.156000
     44 H9          -0.5440     0.0030     3.3330 ha         1 NK8       0.166000
     45 H11         -2.5590     0.4020     0.2560 h1         1 NK8       0.075700
     46 H11A        -2.5600     0.6140     2.0130 h1         1 NK8       0.075700
     47 H15         -5.4350    -3.4330     2.3600 ha         1 NK8       0.179000
     48 H16         -7.8080    -2.9370     2.7930 ha         1 NK8       0.149000
     49 HN20       -10.1640     0.4980     4.6230 hn         1 NK8       0.482467
     50 HN2A        -8.8590     1.2180     3.9520 hn         1 NK8       0.482467
     51 H21         -6.6850     0.8400     4.5020 ha         1 NK8       0.149000
     52 H22         -4.3170     0.3220     4.0630 ha         1 NK8       0.179000
     53 H25         -3.3640    -3.1520     0.4610 h1         1 NK8       0.079700
     54 H26         -0.7030    -2.0520     0.0940 h1         1 NK8       0.076700
     55 HN27        -1.6880    -4.4220     0.2960 hn         1 NK8       0.366800
     56 H28          0.6390    -3.9080     0.3460 h1         1 NK8       0.060700
     57 H28A         0.6080    -3.8530    -1.4210 h1         1 NK8       0.060700
     58 H30          0.3310    -5.8720    -2.7330 ha         1 NK8       0.166500
     59 H31          0.6400    -8.3150    -2.8260 ha         1 NK8       0.142500
     60 HN34         0.1590   -10.5940     0.9520 hn         1 NK8       0.478467
     61 HN3A         1.7800   -10.3880     0.9300 hn         1 NK8       0.478467
     62 H36          0.7190    -8.4490     1.4650 ha         1 NK8       0.142500
     63 H37          0.4130    -6.0070     1.5370 ha         1 NK8       0.166500
     64 H38         -1.8900    -2.7340    -2.5860 h1         1 NK8       0.061200
     65 H38A        -0.6380    -1.5300    -2.1790 h1         1 NK8       0.061200
     66 HN40        -3.0230    -0.7510    -2.7050 hn         1 NK8       0.367800
     67 H41         -4.2670    -0.7080    -0.4640 h1         1 NK8       0.052200
     68 H41A        -4.2850    -2.1910    -1.4540 h1         1 NK8       0.052200
     69 H203        -8.7290     0.5220     5.4180 hn         1 NK8       0.482467
     70 H343         1.1050   -11.6850     0.1930 hn         1 NK8       0.478467
@<TRIPOS>BOND
     1     1     2 ar
     2     1    10 ar
     3     2     3 ar
     4     3     4 1
     5     3     8 ar
     6     4     5 1
     7     4     6 1
     8     4     7 1
     9     8     9 ar
    10     9    10 ar
    11    10    11 1
    12    11    12 1
    13    12    13 1
    14    12    25 1
    15    13    14 1
    16    13    23 2
    17    13    24 2
    18    14    15 ar
    19    14    22 ar
    20    15    16 ar
    21    16    17 ar
    22    17    18 1
    23    17    21 ar
    24    18    19 2
    25    18    20 1
    26    21    22 ar
    27    25    26 1
    28    25    40 1
    29    26    27 1
    30    26    38 1
    31    27    28 1
    32    28    29 1
    33    29    30 ar
    34    29    37 ar
    35    30    31 ar
    36    31    32 ar
    37    32    33 1
    38    32    36 ar
    39    33    34 1
    40    33    35 2
    41    36    37 ar
    42    38    39 1
    43    39    40 1
    44     1    41 1
    45     2    42 1
    46     8    43 1
    47     9    44 1
    48    11    45 1
    49    11    46 1
    50    15    47 1
    51    16    48 1
    52    20    49 1
    53    20    50 1
    54    21    51 1
    55    22    52 1
    56    25    53 1
    57    26    54 1
    58    27    55 1
    59    28    56 1
    60    28    57 1
    61    30    58 1
    62    31    59 1
    63    34    60 1
    64    34    61 1
    65    36    62 1
    66    37    63 1
    67    38    64 1
    68    38    65 1
    69    39    66 1
    70    40    67 1
    71    40    68 1
    72    69    20 1
    73    70    34 1
@<TRIPOS>SUBSTRUCTURE
     1 NK8         1 TEMP              0 ****  ****    0 ROOT
