@<TRIPOS>MOLECULE
NK9
   67    70     1     0     0
SMALL
bcc


@<TRIPOS>ATOM
      1 C1           0.0000     0.0000     0.0000 c3         1 NK9       0.136800
      2 N2           1.4860     0.0000     0.0000 n7         1 NK9      -0.591200
      3 C3           1.8510     0.0000     1.4390 c3         1 NK9       0.141800
      4 C4           0.8290     0.9500     2.1000 c3         1 NK9       0.042500
      5 N5           0.4440     0.4460     3.4250 n7         1 NK9      -0.565200
      6 C6           1.3830     0.9070     4.4570 c3         1 NK9       0.196100
      7 C7           0.9580     0.3710     5.7980 ca         1 NK9      -0.025300
      8 C8           1.4350    -0.8500     6.2370 ca         1 NK9      -0.172000
      9 C9           1.0440    -1.3460     7.4730 ca         1 NK9       0.178100
     10 O10          1.5130    -2.5460     7.9030 oh         1 NK9      -0.515600
     11 C11          0.1740    -0.6150     8.2680 ca         1 NK9      -0.218000
     12 C12         -0.3030     0.6090     7.8270 ca         1 NK9       0.178100
     13 O13         -1.1540     1.3280     8.6050 oh         1 NK9      -0.515600
     14 C14          0.0950     1.1030     6.5920 ca         1 NK9      -0.172000
     15 C15         -0.3880     0.9510     1.1520 c3         1 NK9       0.194500
     16 N16         -0.6320     2.3010     0.6380 n3         1 NK9      -0.503500
     17 S17         -2.0450     3.0820     1.0050 sy         1 NK9       1.043200
     18 O18         -2.1590     4.1590     0.0840 o          1 NK9      -0.562300
     19 O19         -3.0370     2.0750     1.1490 o          1 NK9      -0.562300
     20 C20         -1.8410     3.8110     2.5960 ca         1 NK9      -0.097500
     21 C21         -1.5210     5.1530     2.7040 ca         1 NK9       0.009000
     22 C22         -1.3590     5.7280     3.9480 ca         1 NK9      -0.067500
     23 C23         -1.5200     4.9550     5.0980 ca         1 NK9      -0.193600
     24 C24         -1.3490     5.5650     6.4340 c          1 NK9       0.354700
     25 N25         -1.5040     4.8140     7.5430 nz         1 NK9       0.193600
     26 O26         -1.0680     6.7440     6.5320 o          1 NK9      -0.418100
     27 C27         -1.8420     3.6010     4.9820 ca         1 NK9      -0.067500
     28 C28         -2.0060     3.0390     3.7330 ca         1 NK9       0.009000
     29 C29          0.3730     2.9590    -0.2000 c3         1 NK9       0.257100
     30 C30          1.3740     3.6650     0.6770 ca         1 NK9      -0.087300
     31 C31          2.5640     3.0440     1.0070 ca         1 NK9      -0.120500
     32 C32          3.4830     3.6920     1.8120 ca         1 NK9      -0.047000
     33 C33          3.2110     4.9620     2.2860 ca         1 NK9      -0.209300
     34 C34          4.2120     5.6680     3.1640 c3         1 NK9       0.640200
     35 F35          5.0910     6.4090     2.3660 f          1 NK9      -0.205967
     36 F36          3.5400     6.5280     4.0380 f          1 NK9      -0.205967
     37 F37          4.9340     4.7240     3.9010 f          1 NK9      -0.205967
     38 C38          2.0210     5.5840     1.9560 ca         1 NK9      -0.047000
     39 C39          1.1050     4.9370     1.1470 ca         1 NK9      -0.120500
     40 H1          -0.3760     0.3780    -0.9430 h1         1 NK9       0.032200
     41 H1A         -0.3760    -0.9970     0.1920 h1         1 NK9       0.032200
     42 HN2          1.8200    -0.8410    -0.4290 hn         1 NK9       0.270800
     43 H3           1.7580    -0.9980     1.8510 h1         1 NK9       0.026700
     44 H3A          2.8570     0.3780     1.5720 h1         1 NK9       0.026700
     45 H4           1.2430     1.9480     2.1770 h1         1 NK9       0.053700
     46 HN5         -0.4780     0.7640     3.6480 hn         1 NK9       0.247800
     47 H6           2.3790     0.5500     4.2250 h1         1 NK9       0.013700
     48 H6A          1.3860     1.9900     4.4860 h1         1 NK9       0.013700
     49 H8           2.1180    -1.4180     5.6170 ha         1 NK9       0.107500
     50 HO10         2.3800    -2.4370     8.2570 ho         1 NK9       0.424500
     51 H11         -0.1320    -1.0000     9.2330 ha         1 NK9       0.131000
     52 HO13        -1.4650     0.7880     9.3120 ho         1 NK9       0.424500
     53 H14         -0.2780     2.0600     6.2460 ha         1 NK9       0.107500
     54 H15         -1.2630     0.5750     1.6680 h1         1 NK9       0.063700
     55 H21         -1.3960     5.7530     1.8110 ha         1 NK9       0.150000
     56 H22         -1.1080     6.7790     4.0310 ha         1 NK9       0.121500
     57 HN25        -0.7580     4.1490     7.6020 hn         1 NK9       0.252800
     58 HN2A        -2.3790     4.3310     7.4990 hn         1 NK9       0.252800
     59 H27         -1.9700     2.9950     5.8710 ha         1 NK9       0.121500
     60 H28         -2.2570     1.9890     3.6420 ha         1 NK9       0.150000
     61 H29         -0.1120     3.6800    -0.8470 h1         1 NK9       0.062700
     62 H29A         0.8820     2.2170    -0.8040 h1         1 NK9       0.062700
     63 H31          2.7770     2.0490     0.6350 ha         1 NK9       0.138000
     64 H32          4.4150     3.2060     2.0700 ha         1 NK9       0.121000
     65 H38          1.8090     6.5800     2.3260 ha         1 NK9       0.121000
     66 H39          0.1730     5.4240     0.8880 ha         1 NK9       0.138000
     67 H253        -1.4570     5.4010     8.3520 hn         1 NK9       0.252800
@<TRIPOS>BOND
     1     1     2 1   
     2     1    15 1   
     3     1    40 1   
     4     1    41 1   
     5     2     3 1   
     6     2    42 1   
     7     3     4 1   
     8     3    43 1   
     9     3    44 1   
    10     4     5 1   
    11     4    15 1   
    12     4    45 1   
    13     5     6 1   
    14     5    46 1   
    15     6     7 1   
    16     6    47 1   
    17     6    48 1   
    18     7     8 ar  
    19     7    14 ar  
    20     8     9 ar  
    21     8    49 1   
    22     9    10 1   
    23     9    11 ar  
    24    10    50 1   
    25    11    12 ar  
    26    11    51 1   
    27    12    13 1   
    28    12    14 ar  
    29    13    52 1   
    30    14    53 1   
    31    15    16 1   
    32    15    54 1   
    33    16    17 1   
    34    16    29 1   
    35    17    18 2   
    36    17    19 2   
    37    17    20 1   
    38    20    21 ar  
    39    20    28 ar  
    40    21    22 ar  
    41    21    55 1   
    42    22    23 ar  
    43    22    56 1   
    44    23    24 1   
    45    23    27 ar  
    46    24    25 1   
    47    24    26 2   
    48    25    57 1   
    49    25    58 1   
    50    25    67 1   
    51    27    28 ar  
    52    27    59 1   
    53    28    60 1   
    54    29    30 1   
    55    29    61 1   
    56    29    62 1   
    57    30    31 ar  
    58    30    39 ar  
    59    31    32 ar  
    60    31    63 1   
    61    32    33 ar  
    62    32    64 1   
    63    33    34 1   
    64    33    38 ar  
    65    34    35 1   
    66    34    36 1   
    67    34    37 1   
    68    38    39 ar  
    69    38    65 1   
    70    39    66 1   
@<TRIPOS>SUBSTRUCTURE
     1 NK9         1 TEMP              0 ****  ****    0 ROOT
