@<TRIPOS>MOLECULE
molecule
   67    70     1     0     0
SMALL
bcc


@<TRIPOS>ATOM
      1 C1           0.0000     0.0000     0.0000 c3         1 NK9       0.137800
      2 N2           1.4860     0.0000     0.0000 n7         1 NK9      -0.804200
      3 C3           1.8510     0.0000     1.4390 c3         1 NK9       0.141800
      4 C4           0.8290     0.9500     2.1000 c3         1 NK9       0.118500
      5 N5           0.4440     0.4460     3.4250 n7         1 NK9      -0.804200
      6 C6           1.3830     0.9070     4.4570 c3         1 NK9       0.202100
      7 C7           0.9580     0.3710     5.7980 ca         1 NK9      -0.028300
      8 C8           1.4350    -0.8500     6.2370 ca         1 NK9      -0.177500
      9 C9           1.0440    -1.3460     7.4730 ca         1 NK9       0.151600
     10 O10          1.5130    -2.5460     7.9030 oh         1 NK9      -0.531600
     11 C11          0.1740    -0.6150     8.2680 ca         1 NK9      -0.225000
     12 C12         -0.3030     0.6090     7.8270 ca         1 NK9       0.151600
     13 O13         -1.1540     1.3280     8.6050 oh         1 NK9      -0.531600
     14 C14          0.0950     1.1030     6.5920 ca         1 NK9      -0.177500
     15 C15         -0.3880     0.9510     1.1520 c3         1 NK9       0.228500
     16 N16         -0.6320     2.3010     0.6380 n3         1 NK9      -0.796500
     17 S17         -2.0450     3.0820     1.0050 sy         1 NK9       1.401200
     18 O18         -2.1590     4.1590     0.0840 o          1 NK9      -0.604800
     19 O19         -3.0370     2.0750     1.1490 o          1 NK9      -0.604800
     20 C20         -1.8410     3.8110     2.5960 ca         1 NK9      -0.246500
     21 C21         -1.5210     5.1530     2.7040 ca         1 NK9      -0.025500
     22 C22         -1.3590     5.7280     3.9480 ca         1 NK9      -0.091500
     23 C23         -1.5200     4.9550     5.0980 ca         1 NK9      -0.169600
     24 C24         -1.3490     5.5650     6.4340 c          1 NK9       0.505700
     25 N25         -1.5040     4.8140     7.5430 nz         1 NK9      -0.679400
     26 O26         -1.0680     6.7440     6.5320 o          1 NK9      -0.409100
     27 C27         -1.8420     3.6010     4.9820 ca         1 NK9      -0.091500
     28 C28         -2.0060     3.0390     3.7330 ca         1 NK9      -0.025500
     29 C29          0.3730     2.9590    -0.2000 c3         1 NK9       0.262100
     30 C30          1.3740     3.6650     0.6770 ca         1 NK9      -0.090300
     31 C31          2.5640     3.0440     1.0070 ca         1 NK9      -0.133000
     32 C32          3.4830     3.6920     1.8120 ca         1 NK9      -0.089000
     33 C33          3.2110     4.9620     2.2860 ca         1 NK9      -0.176300
     34 C34          4.2120     5.6680     3.1640 c3         1 NK9       0.674200
     35 F35          5.0910     6.4090     2.3660 f          1 NK9      -0.220967
     36 F36          3.5400     6.5280     4.0380 f          1 NK9      -0.220967
     37 F37          4.9340     4.7240     3.9010 f          1 NK9      -0.220967
     38 C38          2.0210     5.5840     1.9560 ca         1 NK9      -0.089000
     39 C39          1.1050     4.9370     1.1470 ca         1 NK9      -0.133000
     40 H1          -0.3760     0.3780    -0.9430 h1         1 NK9       0.064700
     41 H1A         -0.3760    -0.9970     0.1920 h1         1 NK9       0.064700
     42 HN2          1.8200    -0.8410    -0.4290 hn         1 NK9       0.366800
     43 H3           1.7580    -0.9980     1.8510 h1         1 NK9       0.057700
     44 H3A          2.8570     0.3780     1.5720 h1         1 NK9       0.057700
     45 H4           1.2430     1.9480     2.1770 h1         1 NK9       0.061700
     46 HN5         -0.4780     0.7640     3.6480 hn         1 NK9       0.345800
     47 H6           2.3790     0.5500     4.2250 h1         1 NK9       0.045200
     48 H6A          1.3860     1.9900     4.4860 h1         1 NK9       0.045200
     49 H8           2.1180    -1.4180     5.6170 ha         1 NK9       0.130000
     50 HO10         2.3800    -2.4370     8.2570 ho         1 NK9       0.441500
     51 H11         -0.1320    -1.0000     9.2330 ha         1 NK9       0.155000
     52 HO13        -1.4650     0.7880     9.3120 ho         1 NK9       0.441500
     53 H14         -0.2780     2.0600     6.2460 ha         1 NK9       0.130000
     54 H15         -1.2630     0.5750     1.6680 h1         1 NK9       0.089700
     55 H21         -1.3960     5.7530     1.8110 ha         1 NK9       0.179500
     56 H22         -1.1080     6.7790     4.0310 ha         1 NK9       0.151500
     57 HN25        -0.7580     4.1490     7.6020 hn         1 NK9       0.482467
     58 HN2A        -2.3790     4.3310     7.4990 hn         1 NK9       0.482467
     59 H27         -1.9700     2.9950     5.8710 ha         1 NK9       0.151500
     60 H28         -2.2570     1.9890     3.6420 ha         1 NK9       0.179500
     61 H29         -0.1120     3.6800    -0.8470 h1         1 NK9       0.098700
     62 H29A         0.8820     2.2170    -0.8040 h1         1 NK9       0.098700
     63 H31          2.7770     2.0490     0.6350 ha         1 NK9       0.156000
     64 H32          4.4150     3.2060     2.0700 ha         1 NK9       0.150500
     65 H38          1.8090     6.5800     2.3260 ha         1 NK9       0.150500
     66 H39          0.1730     5.4240     0.8880 ha         1 NK9       0.156000
     67 H253        -1.4570     5.4010     8.3520 hn         1 NK9       0.482467
@<TRIPOS>BOND
     1     1     2 1
     2     1    15 1
     3     2     3 1
     4     3     4 1
     5     4     5 1
     6     4    15 1
     7     5     6 1
     8     6     7 1
     9     7     8 ar
    10     7    14 ar
    11     8     9 ar
    12     9    10 1
    13     9    11 ar
    14    11    12 ar
    15    12    13 1
    16    12    14 ar
    17    15    16 1
    18    16    17 1
    19    16    29 1
    20    17    18 2
    21    17    19 2
    22    17    20 1
    23    20    21 ar
    24    20    28 ar
    25    21    22 ar
    26    22    23 ar
    27    23    24 1
    28    23    27 ar
    29    24    25 1
    30    24    26 2
    31    27    28 ar
    32    29    30 1
    33    30    31 ar
    34    30    39 ar
    35    31    32 ar
    36    32    33 ar
    37    33    34 1
    38    33    38 ar
    39    34    35 1
    40    34    36 1
    41    34    37 1
    42    38    39 ar
    43     1    40 1
    44     1    41 1
    45     2    42 1
    46     3    43 1
    47     3    44 1
    48     4    45 1
    49     5    46 1
    50     6    47 1
    51     6    48 1
    52     8    49 1
    53    10    50 1
    54    11    51 1
    55    13    52 1
    56    14    53 1
    57    15    54 1
    58    21    55 1
    59    22    56 1
    60    25    57 1
    61    25    58 1
    62    27    59 1
    63    28    60 1
    64    29    61 1
    65    29    62 1
    66    31    63 1
    67    32    64 1
    68    38    65 1
    69    39    66 1
    70    67    25 1
@<TRIPOS>SUBSTRUCTURE
     1 NK9         1 TEMP              0 ****  ****    0 ROOT
