@<TRIPOS>MOLECULE
molecule
   37    39     1     0     0
SMALL
bcc


@<TRIPOS>ATOM
      1 O3           0.0000     0.0000     0.0000 o          1 NKG      -0.625100
      2 C15          1.2160     0.0000     0.0000 c          1 NKG       0.546600
      3 N1           1.8890     0.0000     1.1670 ns         1 NKG      -0.524900
      4 C16          1.1570     0.0010     2.4360 c3         1 NKG      -0.005000
      5 C17          2.1370    -0.0000     3.5810 c          1 NKG       0.882600
      6 O2           1.6880     0.0000     4.8470 o          1 NKG      -0.843300
      7 O1           3.3240     0.0000     3.3600 o          1 NKG      -0.843300
      8 C14          1.9550    -0.0070    -1.2810 ca         1 NKG       0.368800
      9 C            1.2490    -0.0120    -2.4890 ca         1 NKG       0.054800
     10 O           -0.1070    -0.0110    -2.4930 oh         1 NKG      -0.446100
     11 N            3.2820    -0.0010    -1.2740 nb         1 NKG      -0.622000
     12 C3           3.9810    -0.0010    -2.3980 cp         1 NKG       0.430800
     13 C2           3.3380    -0.0060    -3.6410 ca         1 NKG      -0.202300
     14 C1           1.9580    -0.0170    -3.6900 ca         1 NKG      -0.205000
     15 C4           5.4600     0.0110    -2.3390 cp         1 NKG      -0.106500
     16 C13          6.1830     0.9090    -3.1040 ca         1 NKG      -0.127000
     17 C12          7.5720     0.9260    -3.0540 ca         1 NKG      -0.133000
     18 C11          8.2590     0.0630    -2.2550 ca         1 NKG      -0.117000
     19 C10          7.5650    -0.8660    -1.4620 ca         1 NKG      -0.032000
     20 C5           6.1500    -0.8930    -1.4960 ca         1 NKG      -0.003000
     21 C9           8.2510    -1.7690    -0.6300 ca         1 NKG      -0.129000
     22 C8           7.5470    -2.6560     0.1250 ca         1 NKG      -0.122000
     23 C7           6.1540    -2.6850     0.0860 ca         1 NKG      -0.139000
     24 C6           5.4580    -1.8210    -0.7040 ca         1 NKG      -0.070000
     25 H1           2.8900    -0.0290     1.1670 hn         1 NKG       0.351500
     26 H2           0.5340     0.8850     2.4940 h1         1 NKG       0.045700
     27 H3           0.5340    -0.8840     2.4940 h1         1 NKG       0.045700
     28 H5          -0.4190     0.4220    -3.2700 ho         1 NKG       0.405000
     29 H6           3.9180    -0.0080    -4.5560 ha         1 NKG       0.134000
     30 H7           1.4380    -0.0210    -4.6400 ha         1 NKG       0.132000
     31 H8           5.6620     1.6070    -3.7480 ha         1 NKG       0.126000
     32 H9           8.1180     1.6380    -3.6610 ha         1 NKG       0.120000
     33 H10          9.3420     0.0930    -2.2320 ha         1 NKG       0.124000
     34 H11          9.3330    -1.7750    -0.5890 ha         1 NKG       0.123000
     35 H12          7.9920    -3.4110     0.7610 ha         1 NKG       0.123000
     36 H13          5.6710    -3.4800     0.6410 ha         1 NKG       0.135000
     37 H14          4.4830    -2.2600    -0.8840 ha         1 NKG       0.144000
@<TRIPOS>BOND
     1    22    21 ar
     2    22    23 ar
     3    21    19 ar
     4    23    24 ar
     5    19    18 ar
     6    19    20 ar
     7    18    17 ar
     8    24    20 ar
     9    20    15 ar
    10    17    16 ar
    11    15    16 ar
    12    15    12 1
    13    12    13 ar
    14    12    11 ar
    15    13    14 ar
    16    11     8 ar
    17    14     9 ar
    18     8     9 ar
    19     8     2 1
    20     9    10 1
    21     1     2 2
    22     2     3 1
    23     3     4 1
    24     4     5 1
    25     7     5 1
    26     5     6 1
    27     3    25 1
    28     4    26 1
    29     4    27 1
    30    10    28 1
    31    13    29 1
    32    14    30 1
    33    16    31 1
    34    17    32 1
    35    18    33 1
    36    21    34 1
    37    22    35 1
    38    23    36 1
    39    24    37 1
@<TRIPOS>SUBSTRUCTURE
     1 NKG         1 TEMP              0 ****  ****    0 ROOT
