@<TRIPOS>MOLECULE
NKH
   39    41     1     0     0
SMALL
bcc


@<TRIPOS>ATOM
      1 CAR          0.0000     0.0000     0.0000 c3         1 NKH       0.248700
      2 OAQ          1.4300     0.0000     0.0000 os         1 NKH      -0.321900
      3 CAP          2.0480     0.0000     1.2120 ca         1 NKH       0.080100
      4 CAU          1.2940     0.0010     2.3750 ca         1 NKH      -0.153000
      5 CAT          1.9210     0.0010     3.6070 ca         1 NKH      -0.055600
      6 Cl           0.9750     0.0010     5.0620 cl         1 NKH      -0.013400
      7 CAS          3.3080     0.0010     3.6820 ca         1 NKH       0.143100
      8 OAV          3.9220     0.0010     4.8960 os         1 NKH      -0.300900
      9 CAX          5.3510     0.0010     4.9000 c3         1 NKH       0.238700
     10 CAN          4.0650    -0.0000     2.5220 ca         1 NKH      -0.193000
     11 CAO          3.4380    -0.0050     1.2850 ca         1 NKH      -0.069400
     12 NAM          4.2020    -0.0110     0.1110 ns         1 NKH      -0.025100
     13 CAK          5.4570    -0.5010     0.1260 c          1 NKH       0.576700
     14 OAL          5.8910    -1.0300     1.1310 o          1 NKH      -0.602100
     15 CAG          6.3040    -0.3970    -1.0760 ca         1 NKH      -0.195900
     16 CAH          7.6260    -0.9110    -1.0680 ca         1 NKH       0.412600
     17 NAI          8.1300    -1.4970     0.0190 nb         1 NKH      -0.523000
     18 CAJ          9.3520    -1.9740     0.0330 ca         1 NKH       0.411200
     19 CAE         10.1810    -1.8940    -1.0820 ca         1 NKH      -0.220300
     20 CAD          9.7270    -1.3050    -2.2280 ca         1 NKH      -0.058000
     21 CAC          8.4150    -0.7950    -2.2380 ca         1 NKH      -0.160300
     22 CAB          7.8810    -0.1770    -3.3810 ca         1 NKH      -0.052000
     23 CAA          6.6070     0.3090    -3.3640 ca         1 NKH      -0.113000
     24 CAF          5.8140     0.2000    -2.2290 ca         1 NKH      -0.069000
     25 HAR1        -0.3610    -0.0010    -1.0210 h1         1 NKH      -0.001633
     26 HAR2        -0.3610    -0.8840     0.5110 h1         1 NKH      -0.001633
     27 HAR3        -0.3610     0.8850     0.5100 h1         1 NKH      -0.001633
     28 HAU          0.2120     0.0010     2.3180 ha         1 NKH       0.130000
     29 HAN          5.1470    -0.0020     2.5820 ha         1 NKH       0.179000
     30 HAX1         5.7140    -0.8970     4.4150 h1         1 NKH       0.002367
     31 HAX2         5.7090     0.0290     5.9220 h1         1 NKH       0.002367
     32 HAX3         5.7140     0.8710     4.3660 h1         1 NKH       0.002367
     33 HAM          3.8210     0.3620    -0.7360 hn         1 NKH       0.179500
     34 HAF          4.8050     0.5940    -2.2400 ha         1 NKH       0.105000
     35 HAJ          9.7250    -2.4430     0.9350 h4         1 NKH      -0.019900
     36 HAE         11.1860    -2.2970    -1.0410 ha         1 NKH       0.112000
     37 HAD         10.3580    -1.2340    -3.1050 ha         1 NKH       0.111000
     38 HAB          8.4830    -0.0830    -4.2760 ha         1 NKH       0.107000
     39 HAA          6.2040     0.7790    -4.2520 ha         1 NKH       0.107000
@<TRIPOS>BOND
     1     1     2 1   
     2     1    25 1   
     3     1    26 1   
     4     1    27 1   
     5     2     3 1   
     6     3     4 ar  
     7     3    11 ar  
     8     4     5 ar  
     9     4    28 1   
    10     5     6 1   
    11     5     7 ar  
    12     7     8 1   
    13     7    10 ar  
    14     8     9 1   
    15     9    30 1   
    16     9    31 1   
    17     9    32 1   
    18    10    11 ar  
    19    10    29 1   
    20    11    12 1   
    21    12    13 1   
    22    12    33 1   
    23    13    14 2   
    24    13    15 1   
    25    15    16 ar  
    26    15    24 ar  
    27    16    17 ar  
    28    16    21 ar  
    29    17    18 ar  
    30    18    19 ar  
    31    18    35 1   
    32    19    20 ar  
    33    19    36 1   
    34    20    21 ar  
    35    20    37 1   
    36    21    22 ar  
    37    22    23 ar  
    38    22    38 1   
    39    23    24 ar  
    40    23    39 1   
    41    24    34 1   
@<TRIPOS>SUBSTRUCTURE
     1 NKH         1 TEMP              0 ****  ****    0 ROOT
