@<TRIPOS>MOLECULE
NKI
   29    31     1     0     0
SMALL
bcc


@<TRIPOS>ATOM
      1 Cl           0.0000     0.0000     0.0000 cl         1 NKI      -0.025400
      2 CAC          4.4860    -4.1240     4.9540 ca         1 NKI      -0.062000
      3 CAD          5.0960    -4.8330     3.9320 ca         1 NKI      -0.127000
      4 CAE          2.7080     0.0000     0.0000 ca         1 NKI      -0.099500
      5 CAF          1.6480    -0.0010     2.1480 ca         1 NKI      -0.099500
      6 CAG          4.5420    -2.7440     4.9820 ca         1 NKI      -0.110000
      7 CAH          5.7700    -4.1710     2.9250 ca         1 NKI      -0.012000
      8 CAI          3.9470     0.0000     0.6110 ca         1 NKI      -0.070500
      9 CAJ          2.8870    -0.0010     2.7600 ca         1 NKI      -0.070500
     10 NAK          6.3510    -0.6920     1.8000 ns         1 NKI      -0.234900
     11 NAL          5.2910    -0.6770     3.9580 nu         1 NKI      -0.424600
     12 CAM          6.5470    -2.0230     1.8970 c          1 NKI       0.652100
     13 CAN          1.5570     0.0000     0.7680 ca         1 NKI      -0.027600
     14 CAO          4.0370    -0.0000     1.9910 ca         1 NKI      -0.132300
     15 CAP          5.2110    -2.0650     3.9800 ca         1 NKI       0.033600
     16 CAQ          5.8350    -2.7810     2.9420 ca         1 NKI      -0.194600
     17 CAR          5.3890    -0.0010     2.6580 c3         1 NKI       0.261200
     18 HAC          3.9600    -4.6570     5.7370 ha         1 NKI       0.103000
     19 HAD          5.0440    -5.9150     3.9220 ha         1 NKI       0.108000
     20 HAE          2.6370     0.0000    -1.0810 ha         1 NKI       0.116500
     21 HAF          0.7470    -0.0010     2.7500 ha         1 NKI       0.116500
     22 HAG          4.0630    -2.1960     5.7850 ha         1 NKI       0.114000
     23 HAH          6.2450    -4.7290     2.1280 ha         1 NKI       0.125000
     24 HAI          4.8480     0.0000     0.0100 ha         1 NKI       0.117500
     25 HAJ          2.9580    -0.0010     3.8400 ha         1 NKI       0.117500
     26 HNAK         6.8750    -0.1660     1.1280 hn         1 NKI       0.191500
     27 HNAL         6.0410    -0.3760     4.5480 hn         1 NKI       0.266800
     28 HAR          5.7180     1.0190     2.8110 h2         1 NKI       0.043700
     29 OAA          7.3000    -2.5920     1.1300 o          1 NKI      -0.672500
@<TRIPOS>BOND
     1     1    13 1   
     2     2     3 ar  
     3     2     6 ar  
     4     2    18 1   
     5     3     7 ar  
     6     3    19 1   
     7     4     8 ar  
     8     4    13 ar  
     9     4    20 1   
    10     5     9 ar  
    11     5    13 ar  
    12     5    21 1   
    13     6    15 ar  
    14     6    22 1   
    15     7    16 ar  
    16     7    23 1   
    17     8    14 ar  
    18     8    24 1   
    19     9    14 ar  
    20     9    25 1   
    21    10    12 1   
    22    10    17 1   
    23    10    26 1   
    24    11    15 1   
    25    11    17 1   
    26    11    27 1   
    27    12    16 1   
    28    12    29 2   
    29    14    17 1   
    30    15    16 ar  
    31    17    28 1   
@<TRIPOS>SUBSTRUCTURE
     1 NKI         1 TEMP              0 ****  ****    0 ROOT
