@<TRIPOS>MOLECULE
NKK
   85    80     1     0     0
SMALL
bcc


@<TRIPOS>ATOM
      1 CAW        -0.3490   -0.7560   -0.1710 c1        1 NKK      0.025000
      2 CBJ         4.2170    5.4950   10.4940 c2        1 NKK     -0.073000
      3 CBI         4.0740    5.9480   11.8580 c2        1 NKK     -0.150000
      4 CBL         1.6610    8.0210   13.7520 c1        1 NKK     -0.220000
      5 CBM         2.2010    8.7330   14.5470 c1        1 NKK     -0.220000
      6 CBO         5.3950    5.7920   15.2960 c1        1 NKK      0.212000
      7 CBN         4.6820    6.0730   14.2260 c2        1 NKK     -0.463000
      8 CBH         4.8550    5.5690   12.8840 c2        1 NKK     -0.068000
      9 CBG         5.4360    2.0450   10.8780 c1        1 NKK      0.174000
     10 CBF         4.7260    3.1420   10.9930 c2        1 NKK     -0.422000
     11 CBK         4.5120    4.2430   10.0800 c2        1 NKK     -0.067000
     12 OAB         4.7690    4.9870    7.8270 o         1 NKK     -0.423000
     13 N           4.5140    2.7440    8.1020 n         1 NKK     -0.421000
     14 CA          3.8880    4.7260    4.6330 c3        1 NKK     -0.198500
     15 CB          4.9050    5.2770    3.6580 c3        1 NKK     -0.150000
     16 CG          5.2710    6.7010    4.0220 c3        1 NKK     -0.145000
     17 CD          6.3770    7.2210    3.1250 c3        1 NKK     -0.189500
     18 CE          6.5540    8.6800    3.3560 c1        1 NKK     -0.157500
     19 NZ          7.6700    9.1920    3.7950 n3        1 NKK     -0.230500
     20 O           3.8680    2.3450    5.0560 o         1 NKK     -0.442500
     21 NAL         2.8050    3.0320    3.1730 n         1 NKK     -0.428000
     22 CAM         2.7910   -0.6760    4.2070 c3        1 NKK     -0.198500
     23 CAP         2.3810   -1.0240    5.6230 c3        1 NKK     -0.150000
     24 CAQ         3.4690   -0.6020    6.5890 c3        1 NKK     -0.145000
     25 CAR         3.0780   -0.8870    8.0260 c3        1 NKK     -0.189500
     26 CAS         3.9840   -0.1270    8.9270 c1        1 NKK     -0.157500
     27 NAT         4.8020   -0.6880    9.7670 n3        1 NKK     -0.230500
     28 CAN         1.6300   -0.6490    3.2390 c2        1 NKK      0.313500
     29 OAO         1.4810    0.3060    2.4330 o         1 NKK     -0.442500
     30 NAU         0.7430   -1.6880    3.2200 n         1 NKK     -0.428000
     31 CAV         0.7630   -0.0220   -0.8390 c3        1 NKK     -0.285000
     32 OAX        -0.7770   -0.3500    0.9770 oh        1 NKK     -0.185000
     33 CAY         1.5910   -0.9700   -1.6810 c3        1 NKK     -0.107000
     34 CAZ         2.6900   -0.2170   -2.4080 c3        1 NKK     -0.197000
     35 CBA         3.4300   -1.1560   -3.2880 c1        1 NKK     -0.125000
     36 NBB         4.7400   -1.2460   -3.2730 n3        1 NKK     -0.218000
     37 CBC         5.4240   -2.1660   -4.1890 c2        1 NKK      0.208000
     38 NBE         6.6510   -1.9950   -4.6040 n2        1 NKK     -0.334000
     39 NBD         4.6860   -3.3170   -4.5500 n3        1 NKK     -0.317000
     40 H1AW       -0.3200    0.4280    1.3770 ho        1 NKK      0.190000
     41 HBL         1.1740    7.3930   13.0490 ha        1 NKK      0.222500
     42 HBM         3.2680    6.6910   12.0150 ha        1 NKK      0.133000
     43 HBO         2.6760    9.3730   15.2480 ha        1 NKK      0.222500
     44 HBN         3.8380    6.7940   14.3680 ha        1 NKK      0.205000
     45 HBG         5.6910    4.8630   12.7320 ha        1 NKK      0.135000
     46 HBF         4.2060    3.2580   11.9790 ha        1 NKK      0.204000
     47 HN          4.2570    1.9540    8.6630 hn        1 NKK      0.259000
     48 HA          4.5100    2.6280    7.1120 hn        1 NKK      0.259000
     49 H1B         4.3080    4.7470    5.6790 hc        1 NKK      0.130000
     50 H2B         2.9630    5.3610    4.6260 hc        1 NKK      0.130000
     51 H1G         4.4980    5.2510    2.6130 hc        1 NKK      0.078500
     52 H2G         5.8250    4.6340    3.6740 hc        1 NKK      0.078500
     53 H1D         5.6030    6.7400    5.0930 hc        1 NKK      0.101000
     54 H2D         4.3690    7.3610    3.9270 hc        1 NKK      0.101000
     55 H1E         7.3020    6.5980    3.2770 hc        1 NKK      0.079750
     56 H2E         6.0760    7.1090    2.0470 hc        1 NKK      0.079750
     57 H1NZ        8.5020    8.6880    4.0310 hn        1 NKK      0.194500
     58 H2NZ        7.7190   10.1770    3.9230 hn        1 NKK      0.194500
     59 HNAL        2.5140    3.7680    2.5850 hn        1 NKK      0.234750
     60 HAM         2.5210    2.1040    2.9550 hn        1 NKK      0.234750
     61 H1AP        3.2690    0.3460    4.1960 hc        1 NKK      0.130000
     62 H2AP        3.5500   -1.4100    3.8300 hc        1 NKK      0.130000
     63 H1AQ        2.1920   -2.1250    5.7170 hc        1 NKK      0.078500
     64 H2AQ        1.4270   -0.4950    5.8840 hc        1 NKK      0.078500
     65 H1AR        4.4190   -1.1440    6.3440 hc        1 NKK      0.101000
     66 H2AR        3.6690    0.4990    6.4650 hc        1 NKK      0.101000
     67 H1AS        2.0400   -0.5010    8.2230 hc        1 NKK      0.079750
     68 H2AS        3.0570   -1.9990    8.1980 hc        1 NKK      0.079750
     69 H1AT        5.3850   -0.0970   10.3290 hn        1 NKK      0.194500
     70 H2AT        4.9180   -1.6720    9.9040 hn        1 NKK      0.194500
     71 HNAU        0.8320   -2.4380    3.8570 hn        1 NKK      0.234750
     72 HAV        -0.0180   -1.6880    2.5820 hn        1 NKK      0.234750
     73 H1AY        1.4210    0.5140   -0.0990 hc        1 NKK      0.104000
     74 H2AY        0.2940    0.7590   -1.5010 hc        1 NKK      0.104000
     75 H1AZ        2.0450   -1.7560   -1.0230 hc        1 NKK      0.099000
     76 H2AZ        0.9330   -1.4930   -2.4240 hc        1 NKK      0.099000
     77 H1BA        3.3240    0.3350   -1.6590 hc        1 NKK      0.085500
     78 H2BA        2.2320    0.5540   -3.0880 hc        1 NKK      0.085500
     79 HNBB        5.3510   -0.7220   -2.6740 hn        1 NKK      0.172000
     80 H1BE        7.1400   -1.2090   -4.2350 hn        1 NKK      0.153000
     81 H1BD        3.6930   -3.2010   -4.5010 hn        1 NKK      0.218500
     82 H2BD        5.0070   -3.7590   -5.3840 hn        1 NKK      0.218500
     83 C           3.5250    3.2920    4.3070 c2        1 NKK      0.313500
     84 CAA         4.6000    4.0090    8.6000 c2        1 NKK      0.324000
     85 HBJ         4.0490    6.2760    9.7240 ha        1 NKK      0.165000
@<TRIPOS>BOND
     1    1   31 1
     2    1   32 1
     3    2    3 1
     4    2   11 1
     5    2   85 1
     6    3    8 1
     7    3   42 1
     8    4    5 1
     9    4   41 1
    10    5   43 1
    11    6    7 1
    12    7    8 1
    13    7   44 1
    14    8   45 1
    15    9   10 1
    16   10   11 1
    17   10   46 1
    18   11   84 1
    19   12   84 1
    20   13   47 1
    21   13   48 1
    22   13   84 1
    23   14   15 1
    24   14   49 1
    25   14   50 1
    26   14   83 1
    27   15   16 1
    28   15   51 1
    29   15   52 1
    30   16   17 1
    31   16   53 1
    32   16   54 1
    33   17   18 1
    34   17   55 1
    35   17   56 1
    36   18   19 1
    37   19   57 1
    38   19   58 1
    39   20   83 1
    40   21   59 1
    41   21   60 1
    42   21   83 1
    43   22   23 1
    44   22   28 1
    45   22   61 1
    46   22   62 1
    47   23   24 1
    48   23   63 1
    49   23   64 1
    50   24   25 1
    51   24   65 1
    52   24   66 1
    53   25   26 1
    54   25   67 1
    55   25   68 1
    56   26   27 1
    57   27   69 1
    58   27   70 1
    59   28   29 1
    60   28   30 1
    61   30   71 1
    62   30   72 1
    63   31   33 1
    64   31   73 1
    65   31   74 1
    66   32   40 1
    67   33   34 1
    68   33   75 1
    69   33   76 1
    70   34   35 1
    71   34   77 1
    72   34   78 1
    73   35   36 1
    74   36   37 1
    75   36   79 1
    76   37   38 1
    77   37   39 1
    78   38   80 1
    79   39   81 1
    80   39   82 1
@<TRIPOS>SUBSTRUCTURE
     1 NKK         1 TEMP              0 ****  ****    0 ROOT
