@<TRIPOS>MOLECULE
molecule
   58    57     1     0     0
SMALL
bcc


@<TRIPOS>ATOM
      1 OAA          0.0000     0.0000     0.0000 o          1 NKN      -0.907167
      2 OAB          2.1460     1.3140    -0.7590 o          1 NKN      -0.907167
      3 PAC          1.6100     0.0000     0.0000 p5         1 NKN       1.176900
      4 OAD          2.1030     0.0000     1.3960 o          1 NKN      -0.907167
      5 OAE          2.5540    -7.6160    -0.1040 o          1 NKN      -0.570000
      6 OAF          2.1460    -1.3150    -0.7580 os         1 NKN      -0.571200
      7 CAG          1.9280    -2.6400    -0.2680 c3         1 NKN       0.219400
      8 CAH          2.5660    -3.6490    -1.2250 c3         1 NKN       0.133100
      9 CAI          2.4410    -5.0560    -0.6380 c3         1 NKN       0.125400
     10 OAJ          3.1500    -5.9990    -1.4860 os         1 NKN      -0.426900
     11 CAK          3.1380    -7.2870    -1.1100 c          1 NKN       0.628100
     12 CAL          3.8510    -8.3220    -1.9400 c3         1 NKN      -0.132400
     13 CAM          3.6820    -9.6980    -1.2950 c3         1 NKN      -0.071400
     14 CAN          4.4070   -10.7500    -2.1390 c3         1 NKN      -0.084400
     15 CAO          4.2390   -12.1260    -1.4920 c3         1 NKN      -0.080400
     16 CAP          4.9630   -13.1770    -2.3360 c3         1 NKN      -0.082400
     17 CAQ          4.7950   -14.5540    -1.6900 c3         1 NKN      -0.082400
     18 CAR          5.5200   -15.6050    -2.5340 c3         1 NKN      -0.082400
     19 CAS          5.3510   -16.9820    -1.8870 c3         1 NKN      -0.082400
     20 CAT          6.0750   -18.0330    -2.7310 c3         1 NKN      -0.082400
     21 CAU          5.9080   -19.4090    -2.0850 c3         1 NKN      -0.082400
     22 CAV          6.6320   -20.4610    -2.9290 c3         1 NKN      -0.081400
     23 CAW          6.4640   -21.8370    -2.2820 c3         1 NKN      -0.084400
     24 CAX          7.1880   -22.8880    -3.1260 c3         1 NKN      -0.092100
     25 OAY          1.8970    -3.5970    -2.4870 oh         1 NKN      -0.596800
     26 HAG          2.3750    -2.7400     0.7140 h1         1 NKN       0.022200
     27 HAGA         0.8630    -2.8290    -0.2010 h1         1 NKN       0.022200
     28 HAH          3.6130    -3.4060    -1.3600 h1         1 NKN       0.036700
     29 HAI          1.3950    -5.3340    -0.5850 h1         1 NKN       0.055700
     30 HAIA         2.8700    -5.0730     0.3560 h1         1 NKN       0.055700
     31 HAL          3.4300    -8.3370    -2.9380 hc         1 NKN       0.063700
     32 HALA         4.9040    -8.0760    -1.9970 hc         1 NKN       0.063700
     33 HAM          4.1040    -9.6830    -0.2970 hc         1 NKN       0.057200
     34 HAMA         2.6290    -9.9440    -1.2380 hc         1 NKN       0.057200
     35 HAN          3.9850   -10.7660    -3.1360 hc         1 NKN       0.037700
     36 HANA         5.4600   -10.5040    -2.1960 hc         1 NKN       0.037700
     37 HAO          4.6610   -12.1110    -0.4940 hc         1 NKN       0.042700
     38 HAOA         3.1850   -12.3720    -1.4350 hc         1 NKN       0.042700
     39 HAP          4.5420   -13.1920    -3.3330 hc         1 NKN       0.039200
     40 HAPA         6.0160   -12.9310    -2.3920 hc         1 NKN       0.039200
     41 HAQ          5.2150   -14.5390    -0.6920 hc         1 NKN       0.041200
     42 HAQA         3.7410   -14.8010    -1.6340 hc         1 NKN       0.041200
     43 HAR          6.5730   -15.3590    -2.5900 hc         1 NKN       0.039700
     44 HARA         5.0990   -15.6200    -3.5320 hc         1 NKN       0.039700
     45 HAS          4.2980   -17.2280    -1.8310 hc         1 NKN       0.040700
     46 HASA         5.7730   -16.9670    -0.8890 hc         1 NKN       0.040700
     47 HAT          7.1290   -17.7870    -2.7880 hc         1 NKN       0.040200
     48 HATA         5.6530   -18.0480    -3.7290 hc         1 NKN       0.040200
     49 HAU          6.3290   -19.3940    -1.0870 hc         1 NKN       0.040700
     50 HAUA         4.8540   -19.6550    -2.0280 hc         1 NKN       0.040700
     51 HAV          6.2100   -20.4770    -3.9260 hc         1 NKN       0.040700
     52 HAVA         7.6850   -20.2150    -2.9860 hc         1 NKN       0.040700
     53 HAW          5.4110   -22.0840    -2.2250 hc         1 NKN       0.039700
     54 HAWA         6.8860   -21.8220    -1.2850 hc         1 NKN       0.039700
     55 HAX          6.7660   -22.9040    -4.1230 hc         1 NKN       0.030700
     56 HAXA         8.2420   -22.6420    -3.1830 hc         1 NKN       0.030700
     57 HAXB         7.0690   -23.8630    -2.6680 hc         1 NKN       0.030700
     58 HOAY         2.5120    -3.3520    -3.1580 ho         1 NKN       0.391000
@<TRIPOS>BOND
     1     1     3 1
     2     2     3 1
     3     3     4 1
     4     3     6 1
     5     5    11 2
     6     6     7 1
     7     7     8 1
     8     8     9 1
     9     8    25 1
    10     9    10 1
    11    10    11 1
    12    11    12 1
    13    12    13 1
    14    13    14 1
    15    14    15 1
    16    15    16 1
    17    16    17 1
    18    17    18 1
    19    18    19 1
    20    19    20 1
    21    20    21 1
    22    21    22 1
    23    22    23 1
    24    23    24 1
    25     7    26 1
    26     7    27 1
    27     8    28 1
    28     9    29 1
    29     9    30 1
    30    12    31 1
    31    12    32 1
    32    13    33 1
    33    13    34 1
    34    14    35 1
    35    14    36 1
    36    15    37 1
    37    15    38 1
    38    16    39 1
    39    16    40 1
    40    17    41 1
    41    17    42 1
    42    18    43 1
    43    18    44 1
    44    19    45 1
    45    19    46 1
    46    20    47 1
    47    20    48 1
    48    21    49 1
    49    21    50 1
    50    22    51 1
    51    22    52 1
    52    23    53 1
    53    23    54 1
    54    24    55 1
    55    24    56 1
    56    24    57 1
    57    25    58 1
@<TRIPOS>SUBSTRUCTURE
     1 NKN         1 TEMP              0 ****  ****    0 ROOT
