@<TRIPOS>MOLECULE
NKN
   58    57     1     0     0
SMALL
bcc


@<TRIPOS>ATOM
      1 OAA         1.0730   -0.5850    1.0140 o         1 NKN     -0.928833
      2 OAB         2.4860    1.0330   -0.3850 o         1 NKN     -0.928833
      3 PAC         2.4130   -0.2240    0.4320 p5        1 NKN      1.312900
      4 OAD         3.5980   -0.5490    1.3000 o         1 NKN     -0.928833
      5 OAE         1.2880   -7.6350   -0.9570 o         1 NKN     -0.580000
      6 OAF         2.5660   -1.4610   -0.8080 os        1 NKN     -0.567200
      7 CAG         2.5180   -2.6980   -0.2150 c3        1 NKN      0.171400
      8 CAH         2.7650   -3.7770   -1.2960 c3        1 NKN      0.120100
      9 CAI         2.0970   -5.0890   -0.8790 c3        1 NKN      0.130400
     10 OAJ         2.9040   -6.1500   -1.4490 os        1 NKN     -0.424900
     11 CAK         2.3940   -7.3990   -1.4580 c         1 NKN      0.626100
     12 CAL         3.3030   -8.3850   -2.1380 c3        1 NKN     -0.135400
     13 CAM         3.2070   -9.7510   -1.4950 c3        1 NKN     -0.078400
     14 CAN         4.0080  -10.7740   -2.2720 c3        1 NKN     -0.078400
     15 CAO         3.9280  -12.1390   -1.6220 c3        1 NKN     -0.079400
     16 CAP         4.7220  -13.1660   -2.4000 c3        1 NKN     -0.078400
     17 CAQ         4.6400  -14.5310   -1.7520 c3        1 NKN     -0.079400
     18 CAR         5.4320  -15.5590   -2.5310 c3        1 NKN     -0.078400
     19 CAS         5.3480  -16.9250   -1.8830 c3        1 NKN     -0.079400
     20 CAT         6.1390  -17.9530   -2.6630 c3        1 NKN     -0.078400
     21 CAU         6.0540  -19.3190   -2.0160 c3        1 NKN     -0.079400
     22 CAV         6.8440  -20.3480   -2.7960 c3        1 NKN     -0.079400
     23 CAW         6.7590  -21.7140   -2.1510 c3        1 NKN     -0.080400
     24 CAX         7.5440  -22.7420   -2.9240 c3        1 NKN     -0.092100
     25 OAY         2.2410   -3.4060   -2.5590 oh        1 NKN     -0.660800
     26 HAG         1.5070   -2.8530    0.2590 h1        1 NKN      0.024700
     27 HAGA        3.3080   -2.7820    0.5820 h1        1 NKN      0.024700
     28 HAH         3.8700   -3.9460   -1.4310 h1        1 NKN      0.029700
     29 HAI         2.1070   -5.2200    0.2320 h1        1 NKN      0.055700
     30 HAIA        1.0540   -5.1680   -1.2740 h1        1 NKN      0.055700
     31 HAL         4.3570   -8.0050   -2.1030 hc        1 NKN      0.069200
     32 HALA        2.9940   -8.4360   -3.2160 hc        1 NKN      0.069200
     33 HAM         3.5840   -9.6950   -0.4400 hc        1 NKN      0.054200
     34 HAMA        2.1290  -10.0620   -1.4440 hc        1 NKN      0.054200
     35 HAN         3.6220  -10.8350   -3.3240 hc        1 NKN      0.037200
     36 HANA        5.0790  -10.4470   -2.3310 hc        1 NKN      0.037200
     37 HAO         2.8550  -12.4610   -1.5580 hc        1 NKN      0.040200
     38 HAOA        4.3180  -12.0780   -0.5720 hc        1 NKN      0.040200
     39 HAP         4.3320  -13.2250   -3.4510 hc        1 NKN      0.037700
     40 HAPA        5.7940  -12.8430   -2.4630 hc        1 NKN      0.037700
     41 HAQ         3.5670  -14.8530   -1.6870 hc        1 NKN      0.039200
     42 HAQA        5.0300  -14.4720   -0.7020 hc        1 NKN      0.039200
     43 HAR         5.0420  -15.6170   -3.5810 hc        1 NKN      0.038200
     44 HARA        6.5050  -15.2380   -2.5940 hc        1 NKN      0.038200
     45 HAS         4.2750  -17.2450   -1.8190 hc        1 NKN      0.039200
     46 HASA        5.7390  -16.8670   -0.8330 hc        1 NKN      0.039200
     47 HAT         7.2120  -17.6330   -2.7270 hc        1 NKN      0.038700
     48 HATA        5.7490  -18.0100   -3.7130 hc        1 NKN      0.038700
     49 HAU         4.9810  -19.6390   -1.9520 hc        1 NKN      0.039200
     50 HAUA        6.4450  -19.2620   -0.9660 hc        1 NKN      0.039200
     51 HAV         7.9180  -20.0290   -2.8600 hc        1 NKN      0.038700
     52 HAVA        6.4530  -20.4040   -3.8470 hc        1 NKN      0.038700
     53 HAW         5.6850  -22.0310   -2.0860 hc        1 NKN      0.037700
     54 HAWA        7.1490  -21.6550   -1.1000 hc        1 NKN      0.037700
     55 HAX         8.6220  -22.4560   -2.9780 hc        1 NKN      0.030367
     56 HAXA        7.4690  -23.7410   -2.4320 hc        1 NKN      0.030367
     57 HAXB        7.1540  -22.8330   -3.9670 hc        1 NKN      0.030367
     58 HOAY        2.0570   -2.4500   -2.5120 ho        1 NKN      0.456000
@<TRIPOS>BOND
     1    1    3 1   
     2    2    3 1   
     3    3    4 1   
     4    3    6 1   
     5    5   11 2   
     6    6    7 1   
     7    7    8 1   
     8    7   26 1   
     9    7   27 1   
    10    8    9 1   
    11    8   25 1   
    12    8   28 1   
    13    9   10 1   
    14    9   29 1   
    15    9   30 1   
    16   10   11 1   
    17   11   12 1   
    18   12   13 1   
    19   12   31 1   
    20   12   32 1   
    21   13   14 1   
    22   13   33 1   
    23   13   34 1   
    24   14   15 1   
    25   14   35 1   
    26   14   36 1   
    27   15   16 1   
    28   15   37 1   
    29   15   38 1   
    30   16   17 1   
    31   16   39 1   
    32   16   40 1   
    33   17   18 1   
    34   17   41 1   
    35   17   42 1   
    36   18   19 1   
    37   18   43 1   
    38   18   44 1   
    39   19   20 1   
    40   19   45 1   
    41   19   46 1   
    42   20   21 1   
    43   20   47 1   
    44   20   48 1   
    45   21   22 1   
    46   21   49 1   
    47   21   50 1   
    48   22   23 1   
    49   22   51 1   
    50   22   52 1   
    51   23   24 1   
    52   23   53 1   
    53   23   54 1   
    54   24   55 1   
    55   24   56 1   
    56   24   57 1   
    57   25   58 1   
@<TRIPOS>SUBSTRUCTURE
     1 NKN         1 TEMP              0 ****  ****    0 ROOT
