@<TRIPOS>MOLECULE
NKO
   64    63     1     0     0
SMALL
bcc


@<TRIPOS>ATOM
      1 OAA         0.3500    0.3000   -0.6860 o         1 NKO     -0.928833
      2 OAB         2.3130    0.9070   -2.2210 o         1 NKO     -0.928833
      3 PAC         1.8300    0.2970   -0.9330 p5        1 NKO      1.312900
      4 OAD         2.7230    0.5210    0.2580 o         1 NKO     -0.928833
      5 OAE         7.3480   -4.9540   -1.2390 o         1 NKO     -0.580000
      6 OAF         2.1340   -1.4070   -1.2430 os        1 NKO     -0.567200
      7 CAG         3.4710   -1.5850   -1.4940 c3        1 NKO      0.171400
      8 CAH         3.7130   -3.0660   -1.8730 c3        1 NKO      0.120100
      9 CAI         5.1480   -3.4620   -1.5190 c3        1 NKO      0.130400
     10 OAJ         5.5330   -4.4790   -2.4790 os        1 NKO     -0.424900
     11 CAK         6.6510   -5.1920   -2.2320 c         1 NKO      0.626100
     12 CAL         6.8920   -6.2570   -3.2670 c3        1 NKO     -0.135400
     13 CAM         8.3710   -6.4830   -3.4860 c3        1 NKO     -0.077400
     14 CAN         8.6100   -7.6530   -4.4150 c3        1 NKO     -0.078400
     15 CAO        10.0890   -7.8730   -4.6490 c3        1 NKO     -0.079400
     16 CAP        10.3320   -9.0480   -5.5720 c3        1 NKO     -0.078400
     17 CAQ        11.8110   -9.2690   -5.8040 c3        1 NKO     -0.079400
     18 CAR        12.0540  -10.4450   -6.7260 c3        1 NKO     -0.078400
     19 CAS        13.5330  -10.6680   -6.9550 c3        1 NKO     -0.079400
     20 CAT        13.7760  -11.8460   -7.8750 c3        1 NKO     -0.078400
     21 CAU        15.2550  -12.0710   -8.1020 c3        1 NKO     -0.079400
     22 CAV        15.4980  -13.2490   -9.0210 c3        1 NKO     -0.078400
     23 CAW        16.9780  -13.4750   -9.2470 c3        1 NKO     -0.079400
     24 CAX        17.2200  -14.6540  -10.1650 c3        1 NKO     -0.079400
     25 CAY        18.7000  -14.8810  -10.3910 c3        1 NKO     -0.080400
     26 CAZ        18.9460  -16.0540  -11.3040 c3        1 NKO     -0.092100
     27 OBA         2.8390   -3.9470   -1.1900 oh        1 NKO     -0.660800
     28 HAG         3.8030   -0.9260   -2.3440 h1        1 NKO      0.024700
     29 HAGA        4.0690   -1.3210   -0.5750 h1        1 NKO      0.024700
     30 HAH         3.5440   -3.2180   -2.9750 h1        1 NKO      0.029700
     31 HAI         5.8540   -2.6030   -1.6410 h1        1 NKO      0.055700
     32 HAIA        5.2200   -3.8850   -0.4860 h1        1 NKO      0.055700
     33 HAL         6.4010   -7.1970   -2.8990 hc        1 NKO      0.069200
     34 HALA        6.3900   -5.9630   -4.2260 hc        1 NKO      0.069200
     35 HAM         8.8310   -5.5550   -3.9180 hc        1 NKO      0.054200
     36 HAMA        8.8690   -6.6670   -2.4970 hc        1 NKO      0.054200
     37 HAN         8.0970   -7.4670   -5.3950 hc        1 NKO      0.037200
     38 HANA        8.1570   -8.5810   -3.9760 hc        1 NKO      0.037200
     39 HAO        10.5410   -6.9460   -5.0910 hc        1 NKO      0.040200
     40 HAOA       10.6010   -8.0530   -3.6670 hc        1 NKO      0.040200
     41 HAP         9.8770   -9.9730   -5.1310 hc        1 NKO      0.037700
     42 HAPA        9.8200   -8.8650   -6.5540 hc        1 NKO      0.037700
     43 HAQ        12.2650   -8.3440   -6.2470 hc        1 NKO      0.039200
     44 HAQA       12.3220   -9.4490   -4.8220 hc        1 NKO      0.039200
     45 HAR        11.5980  -11.3700   -6.2830 hc        1 NKO      0.038200
     46 HARA       11.5440  -10.2640   -7.7090 hc        1 NKO      0.038200
     47 HAS        13.9880   -9.7440   -7.3990 hc        1 NKO      0.039200
     48 HASA       14.0430  -10.8480   -5.9720 hc        1 NKO      0.039200
     49 HAT        13.3190  -12.7700   -7.4310 hc        1 NKO      0.038700
     50 HATA       13.2670  -11.6650   -8.8580 hc        1 NKO      0.038700
     51 HAU        15.7120  -11.1470   -8.5470 hc        1 NKO      0.039200
     52 HAUA       15.7640  -12.2490   -7.1180 hc        1 NKO      0.039200
     53 HAV        15.0400  -14.1720   -8.5770 hc        1 NKO      0.038700
     54 HAVA       14.9900  -13.0690  -10.0050 hc        1 NKO      0.038700
     55 HAW        17.4350  -12.5520   -9.6910 hc        1 NKO      0.039200
     56 HAWA       17.4850  -13.6540   -8.2620 hc        1 NKO      0.039200
     57 HAX        16.7130  -14.4740  -11.1490 hc        1 NKO      0.038700
     58 HAXA       16.7620  -15.5770   -9.7210 hc        1 NKO      0.038700
     59 HAY        19.1560  -13.9560  -10.8330 hc        1 NKO      0.038200
     60 HAYA       19.2050  -15.0590   -9.4050 hc        1 NKO      0.038200
     61 HAZ        18.5200  -16.9900  -10.8680 hc        1 NKO      0.030700
     62 HAZA       18.4710  -15.8840  -12.3010 hc        1 NKO      0.030700
     63 HAZB       20.0420  -16.2040  -11.4570 hc        1 NKO      0.030700
     64 HOBA        2.1250   -3.3970   -0.8180 ho        1 NKO      0.456000
@<TRIPOS>BOND
     1    1    3 1   
     2    2    3 1   
     3    3    4 1   
     4    3    6 1   
     5    5   11 2   
     6    6    7 1   
     7    7    8 1   
     8    7   28 1   
     9    7   29 1   
    10    8    9 1   
    11    8   27 1   
    12    8   30 1   
    13    9   10 1   
    14    9   31 1   
    15    9   32 1   
    16   10   11 1   
    17   11   12 1   
    18   12   13 1   
    19   12   33 1   
    20   12   34 1   
    21   13   14 1   
    22   13   35 1   
    23   13   36 1   
    24   14   15 1   
    25   14   37 1   
    26   14   38 1   
    27   15   16 1   
    28   15   39 1   
    29   15   40 1   
    30   16   17 1   
    31   16   41 1   
    32   16   42 1   
    33   17   18 1   
    34   17   43 1   
    35   17   44 1   
    36   18   19 1   
    37   18   45 1   
    38   18   46 1   
    39   19   20 1   
    40   19   47 1   
    41   19   48 1   
    42   20   21 1   
    43   20   49 1   
    44   20   50 1   
    45   21   22 1   
    46   21   51 1   
    47   21   52 1   
    48   22   23 1   
    49   22   53 1   
    50   22   54 1   
    51   23   24 1   
    52   23   55 1   
    53   23   56 1   
    54   24   25 1   
    55   24   57 1   
    56   24   58 1   
    57   25   26 1   
    58   25   59 1   
    59   25   60 1   
    60   26   61 1   
    61   26   62 1   
    62   26   63 1   
    63   27   64 1   
@<TRIPOS>SUBSTRUCTURE
     1 NKO         1 TEMP              0 ****  ****    0 ROOT
