@<TRIPOS>MOLECULE
molecule
   64    63     1     0     0
SMALL
bcc


@<TRIPOS>ATOM
      1 OAA          0.0000     0.0000     0.0000 o          1 NKO      -0.907167
      2 OAB          2.1470     1.3140    -0.7590 o          1 NKO      -0.907167
      3 PAC          1.6100     0.0000     0.0000 p5         1 NKO       1.176900
      4 OAD          2.1030     0.0000     1.3960 o          1 NKO      -0.907167
      5 OAE          7.5230    -4.2250    -2.4690 o          1 NKO      -0.569000
      6 OAF          2.1460    -1.3140    -0.7590 os         1 NKO      -0.570200
      7 CAG          3.5320    -1.6570    -0.8360 c3         1 NKO       0.219400
      8 CAH          3.6920    -2.9590    -1.6240 c3         1 NKO       0.133100
      9 CAI          5.1790    -3.2610    -1.8150 c3         1 NKO       0.125400
     10 OAJ          5.3310    -4.4310    -2.6620 os         1 NKO      -0.426900
     11 CAK          6.5850    -4.8310    -2.9290 c          1 NKO       0.628100
     12 CAL          6.8200    -6.0370    -3.8000 c3         1 NKO      -0.132400
     13 CAM          8.3260    -6.2760    -3.9450 c3         1 NKO      -0.071400
     14 CAN          8.5650    -7.5000    -4.8300 c3         1 NKO      -0.084400
     15 CAO         10.0690    -7.7380    -4.9730 c3         1 NKO      -0.080400
     16 CAP         10.3090    -8.9630    -5.8590 c3         1 NKO      -0.082400
     17 CAQ         11.8140    -9.2020    -6.0030 c3         1 NKO      -0.082400
     18 CAR         12.0540   -10.4260    -6.8890 c3         1 NKO      -0.082400
     19 CAS         13.5580   -10.6650    -7.0320 c3         1 NKO      -0.082400
     20 CAT         13.7980   -11.8880    -7.9180 c3         1 NKO      -0.082400
     21 CAU         15.3020   -12.1280    -8.0620 c3         1 NKO      -0.082400
     22 CAV         15.5430   -13.3520    -8.9470 c3         1 NKO      -0.082400
     23 CAW         17.0460   -13.5910    -9.0910 c3         1 NKO      -0.082400
     24 CAX         17.2870   -14.8150    -9.9770 c3         1 NKO      -0.081400
     25 CAY         18.7910   -15.0530   -10.1210 c3         1 NKO      -0.084400
     26 CAZ         19.0310   -16.2780   -11.0060 c3         1 NKO      -0.092100
     27 OBA          3.0770    -4.0300    -0.9050 oh         1 NKO      -0.598800
     28 HAG          3.9280    -1.7900     0.1640 h1         1 NKO       0.022200
     29 HAGA         4.0730    -0.8630    -1.3370 h1         1 NKO       0.022200
     30 HAH          3.2170    -2.8550    -2.5930 h1         1 NKO       0.037700
     31 HAI          5.6350    -3.4520    -0.8510 h1         1 NKO       0.055700
     32 HAIA         5.6630    -2.4120    -2.2820 h1         1 NKO       0.055700
     33 HAL          6.3860    -5.8670    -4.7780 hc         1 NKO       0.064200
     34 HALA         6.3590    -6.9060    -3.3460 hc         1 NKO       0.064200
     35 HAM          8.7870    -5.4070    -4.3980 hc         1 NKO       0.056700
     36 HAMA         8.7600    -6.4460    -2.9670 hc         1 NKO       0.056700
     37 HAN          8.1310    -7.3290    -5.8080 hc         1 NKO       0.037700
     38 HANA         8.1030    -8.3690    -4.3760 hc         1 NKO       0.037700
     39 HAO         10.5310    -6.8690    -5.4260 hc         1 NKO       0.042700
     40 HAOA        10.5030    -7.9100    -3.9950 hc         1 NKO       0.042700
     41 HAP          9.8470    -9.8320    -5.4070 hc         1 NKO       0.038700
     42 HAPA         9.8750    -8.7920    -6.8370 hc         1 NKO       0.038700
     43 HAQ         12.2470    -9.3730    -5.0250 hc         1 NKO       0.041200
     44 HAQA        12.2760    -8.3330    -6.4550 hc         1 NKO       0.041200
     45 HAR         11.5920   -11.2950    -6.4370 hc         1 NKO       0.039700
     46 HARA        11.6210   -10.2540    -7.8670 hc         1 NKO       0.039700
     47 HAS         14.0200    -9.7960    -7.4850 hc         1 NKO       0.040700
     48 HASA        13.9910   -10.8370    -6.0540 hc         1 NKO       0.040700
     49 HAT         13.3350   -12.7570    -7.4660 hc         1 NKO       0.040200
     50 HATA        13.3640   -11.7170    -8.8960 hc         1 NKO       0.040200
     51 HAU         15.7640   -11.2590    -8.5150 hc         1 NKO       0.040700
     52 HAUA        15.7360   -12.2990    -7.0840 hc         1 NKO       0.040700
     53 HAV         15.1090   -13.1820    -9.9250 hc         1 NKO       0.040700
     54 HAVA        15.0810   -14.2210    -8.4940 hc         1 NKO       0.040700
     55 HAW         17.4800   -13.7620    -8.1140 hc         1 NKO       0.040700
     56 HAWA        17.5080   -12.7220    -9.5440 hc         1 NKO       0.040700
     57 HAX         16.8530   -14.6450   -10.9540 hc         1 NKO       0.040700
     58 HAXA        16.8250   -15.6840    -9.5230 hc         1 NKO       0.040700
     59 HAY         19.2250   -15.2240    -9.1430 hc         1 NKO       0.039700
     60 HAYA        19.2520   -14.1840   -10.5740 hc         1 NKO       0.039700
     61 HAZ         18.5700   -17.1470   -10.5520 hc         1 NKO       0.030700
     62 HAZA        20.0960   -16.4470   -11.1090 hc         1 NKO       0.030700
     63 HAZB        18.5960   -16.1080   -11.9840 hc         1 NKO       0.030700
     64 HOBA         2.3850    -4.4030    -1.4260 ho         1 NKO       0.392000
@<TRIPOS>BOND
     1     1     3 1
     2     2     3 1
     3     3     4 1
     4     3     6 1
     5     5    11 2
     6     6     7 1
     7     7     8 1
     8     8     9 1
     9     8    27 1
    10     9    10 1
    11    10    11 1
    12    11    12 1
    13    12    13 1
    14    13    14 1
    15    14    15 1
    16    15    16 1
    17    16    17 1
    18    17    18 1
    19    18    19 1
    20    19    20 1
    21    20    21 1
    22    21    22 1
    23    22    23 1
    24    23    24 1
    25    24    25 1
    26    25    26 1
    27     7    28 1
    28     7    29 1
    29     8    30 1
    30     9    31 1
    31     9    32 1
    32    12    33 1
    33    12    34 1
    34    13    35 1
    35    13    36 1
    36    14    37 1
    37    14    38 1
    38    15    39 1
    39    15    40 1
    40    16    41 1
    41    16    42 1
    42    17    43 1
    43    17    44 1
    44    18    45 1
    45    18    46 1
    46    19    47 1
    47    19    48 1
    48    20    49 1
    49    20    50 1
    50    21    51 1
    51    21    52 1
    52    22    53 1
    53    22    54 1
    54    23    55 1
    55    23    56 1
    56    24    57 1
    57    24    58 1
    58    25    59 1
    59    25    60 1
    60    26    61 1
    61    26    62 1
    62    26    63 1
    63    27    64 1
@<TRIPOS>SUBSTRUCTURE
     1 NKO         1 TEMP              0 ****  ****    0 ROOT
