@<TRIPOS>MOLECULE
molecule
   68    67     1     0     0
SMALL
bcc


@<TRIPOS>ATOM
      1 OAA          0.0000     0.0000     0.0000 o          1 NKP      -0.907167
      2 OAB          2.1470     1.3150    -0.7590 o          1 NKP      -0.907167
      3 PAC          1.6110     0.0000     0.0000 p5         1 NKP       1.175900
      4 OAD          2.1040     0.0000     1.3950 o          1 NKP      -0.907167
      5 OAE          7.5240    -4.2230    -2.4710 o          1 NKP      -0.569000
      6 OAF          2.1470    -1.3150    -0.7600 os         1 NKP      -0.570200
      7 CAG          3.5320    -1.6570    -0.8380 c3         1 NKP       0.219400
      8 CAH          3.6920    -2.9580    -1.6250 c3         1 NKP       0.134100
      9 CAI          5.1790    -3.2610    -1.8150 c3         1 NKP       0.125400
     10 OAJ          5.3310    -4.4300    -2.6630 os         1 NKP      -0.425900
     11 CAK          6.5850    -4.8300    -2.9300 c          1 NKP       0.628100
     12 CAL          6.8210    -6.0360    -3.8030 c3         1 NKP      -0.132400
     13 CAM          8.3250    -6.2740    -3.9460 c3         1 NKP      -0.071400
     14 CAN          8.5650    -7.4990    -4.8320 c3         1 NKP      -0.084400
     15 CAO         10.0690    -7.7370    -4.9770 c3         1 NKP      -0.080400
     16 CAP         10.3100    -8.9610    -5.8620 c3         1 NKP      -0.083400
     17 CAQ         11.8140    -9.2000    -6.0060 c3         1 NKP      -0.077400
     18 CAR         12.0530   -10.4240    -6.8920 c3         1 NKP      -0.050200
     19 CAS         13.5350   -10.6590    -7.0350 c2         1 NKP      -0.167200
     20 CAT         14.0470   -11.8240    -6.7220 c2         1 NKP      -0.187200
     21 CAU         15.5290   -12.0590    -6.8640 c3         1 NKP      -0.046200
     22 CAV         16.0980   -12.5440    -5.5300 c3         1 NKP      -0.077400
     23 CAW         17.6030   -12.7820    -5.6750 c3         1 NKP      -0.083400
     24 CAX         18.1730   -13.2670    -4.3400 c3         1 NKP      -0.082400
     25 CAY         19.6770   -13.5050    -4.4850 c3         1 NKP      -0.082400
     26 CAZ         20.2470   -13.9890    -3.1490 c3         1 NKP      -0.081400
     27 CBA         21.7510   -14.2280    -3.2940 c3         1 NKP      -0.084400
     28 CBB         22.3220   -14.7130    -1.9600 c3         1 NKP      -0.092100
     29 OBC          3.0770    -4.0300    -0.9050 oh         1 NKP      -0.599800
     30 HAG          4.0730    -0.8630    -1.3390 h1         1 NKP       0.022200
     31 HAGA         3.9280    -1.7890     0.1620 h1         1 NKP       0.022200
     32 HAH          3.2170    -2.8550    -2.5930 h1         1 NKP       0.038700
     33 HAI          5.6350    -3.4520    -0.8510 h1         1 NKP       0.055700
     34 HAIA         5.6640    -2.4110    -2.2810 h1         1 NKP       0.055700
     35 HAL          6.3590    -6.9050    -3.3500 hc         1 NKP       0.064200
     36 HALA         6.3880    -5.8650    -4.7810 hc         1 NKP       0.064200
     37 HAM          8.7870    -5.4050    -4.3980 hc         1 NKP       0.057200
     38 HAMA         8.7580    -6.4460    -2.9680 hc         1 NKP       0.057200
     39 HAN          8.1040    -8.3680    -4.3790 hc         1 NKP       0.037700
     40 HANA         8.1310    -7.3280    -5.8100 hc         1 NKP       0.037700
     41 HAO         10.5030    -7.9080    -3.9990 hc         1 NKP       0.043700
     42 HAOA        10.5300    -6.8680    -5.4300 hc         1 NKP       0.043700
     43 HAP          9.8760    -8.7900    -6.8400 hc         1 NKP       0.039200
     44 HAPA         9.8480    -9.8300    -5.4090 hc         1 NKP       0.039200
     45 HAQ         12.2470    -9.3720    -5.0290 hc         1 NKP       0.043200
     46 HAQA        12.2760    -8.3310    -6.4590 hc         1 NKP       0.043200
     47 HAR         11.6190   -10.2530    -7.8700 hc         1 NKP       0.045700
     48 HARA        11.5910   -11.2930    -6.4400 hc         1 NKP       0.045700
     49 HAS         14.1770    -9.8640    -7.3960 ha         1 NKP       0.123000
     50 HAT         13.4040   -12.6190    -6.3610 ha         1 NKP       0.124000
     51 HAU         16.0150   -11.1340    -7.1500 hc         1 NKP       0.042700
     52 HAUA        15.7040   -12.8090    -7.6260 hc         1 NKP       0.042700
     53 HAV         15.6120   -13.4680    -5.2440 hc         1 NKP       0.044700
     54 HAVA        15.9230   -11.7930    -4.7680 hc         1 NKP       0.044700
     55 HAW         17.7780   -13.5320    -6.4360 hc         1 NKP       0.039200
     56 HAWA        18.0890   -11.8570    -5.9600 hc         1 NKP       0.039200
     57 HAX         17.6860   -14.1910    -4.0540 hc         1 NKP       0.042700
     58 HAXA        17.9970   -12.5160    -3.5790 hc         1 NKP       0.042700
     59 HAY         19.8520   -14.2550    -5.2460 hc         1 NKP       0.039700
     60 HAYA        20.1630   -12.5800    -4.7710 hc         1 NKP       0.039700
     61 HAZ         20.0720   -13.2380    -2.3880 hc         1 NKP       0.042200
     62 HAZA        19.7600   -14.9140    -2.8630 hc         1 NKP       0.042200
     63 HBA         22.2380   -13.3040    -3.5800 hc         1 NKP       0.038700
     64 HBAA        21.9260   -14.9790    -4.0550 hc         1 NKP       0.038700
     65 HBB         22.1480   -13.9620    -1.1980 hc         1 NKP       0.031367
     66 HBBA        21.8360   -15.6380    -1.6730 hc         1 NKP       0.031367
     67 HBBB        23.3870   -14.8820    -2.0630 hc         1 NKP       0.031367
     68 HOBC         2.3860    -4.4020    -1.4260 ho         1 NKP       0.391000
@<TRIPOS>BOND
     1     1     3 1
     2     2     3 1
     3     3     4 1
     4     3     6 1
     5     5    11 2
     6     6     7 1
     7     7     8 1
     8     8     9 1
     9     8    29 1
    10     9    10 1
    11    10    11 1
    12    11    12 1
    13    12    13 1
    14    13    14 1
    15    14    15 1
    16    15    16 1
    17    16    17 1
    18    17    18 1
    19    18    19 1
    20    19    20 2
    21    20    21 1
    22    21    22 1
    23    22    23 1
    24    23    24 1
    25    24    25 1
    26    25    26 1
    27    26    27 1
    28    27    28 1
    29     7    30 1
    30     7    31 1
    31     8    32 1
    32     9    33 1
    33     9    34 1
    34    12    35 1
    35    12    36 1
    36    13    37 1
    37    13    38 1
    38    14    39 1
    39    14    40 1
    40    15    41 1
    41    15    42 1
    42    16    43 1
    43    16    44 1
    44    17    45 1
    45    17    46 1
    46    18    47 1
    47    18    48 1
    48    19    49 1
    49    20    50 1
    50    21    51 1
    51    21    52 1
    52    22    53 1
    53    22    54 1
    54    23    55 1
    55    23    56 1
    56    24    57 1
    57    24    58 1
    58    25    59 1
    59    25    60 1
    60    26    61 1
    61    26    62 1
    62    27    63 1
    63    27    64 1
    64    28    65 1
    65    28    66 1
    66    28    67 1
    67    29    68 1
@<TRIPOS>SUBSTRUCTURE
     1 NKP         1 TEMP              0 ****  ****    0 ROOT
