@<TRIPOS>MOLECULE
molecule
   64    63     1     0     0
SMALL
bcc


@<TRIPOS>ATOM
      1 OAA          0.0000     0.0000     0.0000 o          1 NKQ      -0.822833
      2 OAB          2.1460     1.3140    -0.7590 o          1 NKQ      -0.822833
      3 PAC          1.6100     0.0000     0.0000 p5         1 NKQ       1.200900
      4 OAD          2.1030     0.0000     1.3950 o          1 NKQ      -0.822833
      5 OAE          2.5560    -7.6160    -0.1060 o          1 NKQ      -0.565000
      6 OAF          2.1460    -1.3150    -0.7600 os         1 NKQ      -0.579200
      7 CAG          1.9280    -2.6390    -0.2700 c3         1 NKQ       0.218400
      8 CAH          2.5670    -3.6480    -1.2270 c3         1 NKQ       0.135100
      9 CAI          2.4420    -5.0570    -0.6400 c3         1 NKQ       0.127400
     10 OAJ          3.1510    -5.9980    -1.4890 os         1 NKQ      -0.426900
     11 CAK          3.1390    -7.2860    -1.1120 c          1 NKQ       0.628100
     12 CAL          3.8530    -8.3210    -1.9440 c3         1 NKQ      -0.130400
     13 CAM          3.6850    -9.6980    -1.2970 c3         1 NKQ      -0.071400
     14 CAN          4.4090   -10.7490    -2.1410 c3         1 NKQ      -0.084400
     15 CAO          4.2420   -12.1260    -1.4960 c3         1 NKQ      -0.080400
     16 CAP          4.9670   -13.1760    -2.3390 c3         1 NKQ      -0.083400
     17 CAQ          4.7980   -14.5530    -1.6940 c3         1 NKQ      -0.077400
     18 CAR          5.5230   -15.6040    -2.5380 c3         1 NKQ      -0.046200
     19 CAS          5.3580   -16.9600    -1.9010 c2         1 NKQ      -0.183200
     20 CAT          4.8630   -17.9540    -2.5970 c2         1 NKQ      -0.179200
     21 CAU          4.6980   -19.3090    -1.9620 c3         1 NKQ       0.059000
     22 CAV          3.2670   -19.7600    -2.1030 c2         1 NKQ      -0.257200
     23 CAW          2.9980   -20.9350    -2.6160 c2         1 NKQ      -0.207200
     24 CAX          4.1150   -21.9050    -2.9050 c3         1 NKQ       0.243000
     25 CAY          3.8220   -23.2220    -2.2350 c2         1 NKQ      -0.198200
     26 CAZ          3.8530   -24.3320    -2.9290 c2         1 NKQ      -0.290200
     27 CBA          4.3450   -24.3160    -4.3530 c3         1 NKQ       0.022800
     28 CBB          5.4570   -25.3540    -4.5220 c3         1 NKQ      -0.100100
     29 OBC          1.8980    -3.5970    -2.4880 oh         1 NKQ      -0.596800
     30 HAG          2.3760    -2.7390     0.7120 h1         1 NKQ       0.026700
     31 HAGA         0.8640    -2.8290    -0.2030 h1         1 NKQ       0.026700
     32 HAH          3.6140    -3.4040    -1.3630 h1         1 NKQ       0.040700
     33 HAI          1.3960    -5.3340    -0.5870 h1         1 NKQ       0.056700
     34 HAIA         2.8710    -5.0730     0.3540 h1         1 NKQ       0.056700
     35 HAL          3.4310    -8.3360    -2.9410 hc         1 NKQ       0.065200
     36 HALA         4.9060    -8.0740    -2.0010 hc         1 NKQ       0.065200
     37 HAM          4.1070    -9.6820    -0.3000 hc         1 NKQ       0.057700
     38 HAMA         2.6310    -9.9440    -1.2400 hc         1 NKQ       0.057700
     39 HAN          3.9870   -10.7640    -3.1390 hc         1 NKQ       0.037200
     40 HANA         5.4630   -10.5020    -2.1990 hc         1 NKQ       0.037200
     41 HAO          3.1890   -12.3720    -1.4400 hc         1 NKQ       0.044200
     42 HAOA         4.6630   -12.1100    -0.4980 hc         1 NKQ       0.044200
     43 HAP          4.5460   -13.1910    -3.3370 hc         1 NKQ       0.038200
     44 HAPA         6.0200   -12.9290    -2.3960 hc         1 NKQ       0.038200
     45 HAQ          5.2200   -14.5380    -0.6960 hc         1 NKQ       0.045200
     46 HAQA         3.7450   -14.7990    -1.6370 hc         1 NKQ       0.045200
     47 HAR          6.5760   -15.3580    -2.5950 hc         1 NKQ       0.042700
     48 HARA         5.1010   -15.6190    -3.5360 hc         1 NKQ       0.042700
     49 HAS          5.6480   -17.1130    -0.8690 ha         1 NKQ       0.121000
     50 HAT          4.5730   -17.8010    -3.6300 ha         1 NKQ       0.130000
     51 HAU          4.9550   -19.2490    -0.9110 hc         1 NKQ       0.036700
     52 HAV          3.8610   -20.0520    -1.2460 ha         1 NKQ       0.090000
     53 HAW          3.5600   -20.8790    -3.5400 ha         1 NKQ      -0.004000
     54 HAX          4.1960   -22.0530    -3.9750 hc         1 NKQ       0.038200
     55 HAXA         5.0470   -21.5050    -2.5240 hc         1 NKQ       0.038200
     56 HAY          4.8410   -22.8800    -2.3720 ha         1 NKQ      -0.005000
     57 HAZ          3.1910   -24.0710    -3.7450 ha         1 NKQ       0.093000
     58 HBA          4.7310   -23.3320    -4.5910 hc         1 NKQ       0.030200
     59 HBAA         3.5260   -24.5530    -5.0210 hc         1 NKQ       0.030200
     60 HBB          5.7710   -25.3820    -5.5580 hc         1 NKQ       0.031033
     61 HBBA         6.3000   -25.0850    -3.8960 hc         1 NKQ       0.031033
     62 HBBB         5.0870   -26.3290    -4.2300 hc         1 NKQ       0.031033
     63 HOBC         2.5120    -3.3500    -3.1600 ho         1 NKQ       0.395000
     64 HAUA         5.3510   -20.0210    -2.4530 hc         1 NKQ       0.036700
@<TRIPOS>BOND
     1     1     3 1
     2     2     3 1
     3     3     4 1
     4     3     6 1
     5     5    11 2
     6     6     7 1
     7     7     8 1
     8     8     9 1
     9     8    29 1
    10     9    10 1
    11    10    11 1
    12    11    12 1
    13    12    13 1
    14    13    14 1
    15    14    15 1
    16    15    16 1
    17    16    17 1
    18    17    18 1
    19    18    19 1
    20    19    20 2
    21    20    21 1
    22    21    22 1
    23    22    23 2
    24    23    24 1
    25    24    25 1
    26    25    26 2
    27    26    27 1
    28    27    28 1
    29     7    30 1
    30     7    31 1
    31     8    32 1
    32     9    33 1
    33     9    34 1
    34    12    35 1
    35    12    36 1
    36    13    37 1
    37    13    38 1
    38    14    39 1
    39    14    40 1
    40    15    41 1
    41    15    42 1
    42    16    43 1
    43    16    44 1
    44    17    45 1
    45    17    46 1
    46    18    47 1
    47    18    48 1
    48    19    49 1
    49    20    50 1
    50    21    51 1
    51    22    52 1
    52    23    53 1
    53    24    54 1
    54    24    55 1
    55    25    56 1
    56    26    57 1
    57    27    58 1
    58    27    59 1
    59    28    60 1
    60    28    61 1
    61    28    62 1
    62    29    63 1
    63    21    64 1
@<TRIPOS>SUBSTRUCTURE
     1 NKQ         1 TEMP              0 ****  ****    0 ROOT
