@<TRIPOS>MOLECULE
NKQ
   64    63     1     0     0
SMALL
bcc


@<TRIPOS>ATOM
      1 OAA         6.6980   -4.3070    0.5500 o         1 NKQ     -0.927833
      2 OAB         8.0860   -4.2880   -1.6100 o         1 NKQ     -0.927833
      3 PAC         6.9350   -4.8530   -0.8310 p5        1 NKQ      1.309900
      4 OAD         6.6440   -6.3220   -0.9950 o         1 NKQ     -0.927833
      5 OAE        -0.2150   -6.8330   -1.2860 o         1 NKQ     -0.593000
      6 OAF         5.5460   -4.1970   -1.6940 os        1 NKQ     -0.560200
      7 CAG         4.3580   -4.6060   -1.1610 c3        1 NKQ      0.218400
      8 CAH         3.6610   -5.5930   -2.1390 c3        1 NKQ      0.081100
      9 CAI         2.1910   -5.7660   -1.7710 c3        1 NKQ      0.143400
     10 OAJ         1.8820   -7.1570   -2.0330 os        1 NKQ     -0.412900
     11 CAK         0.6570   -7.6100   -1.7000 c         1 NKQ      0.625100
     12 CAL         0.5000   -9.0910   -1.9110 c3        1 NKQ     -0.127400
     13 CAM         1.5560   -9.8610   -1.1480 c3        1 NKQ     -0.086400
     14 CAN         1.5040  -11.3370   -1.4780 c3        1 NKQ     -0.072400
     15 CAO         2.5730  -12.0950   -0.7200 c3        1 NKQ     -0.084400
     16 CAP         2.5810  -13.5610   -1.0940 c3        1 NKQ     -0.076400
     17 CAQ         3.6560  -14.3110   -0.3370 c3        1 NKQ     -0.079400
     18 CAR         3.7070  -15.7780   -0.7120 c3        1 NKQ     -0.052200
     19 CAS         2.5480  -16.5530   -0.2110 c2        1 NKQ     -0.152200
     20 CAT         2.3420  -17.8460   -0.4830 c2        1 NKQ     -0.195200
     21 CAU         3.2490  -18.6540   -1.3330 c3        1 NKQ     -0.018000
     22 CAV         2.8980  -20.0930   -1.3850 c2        1 NKQ     -0.160200
     23 CAW         3.5480  -20.9870   -2.1400 c2        1 NKQ     -0.183200
     24 CAX         4.6900  -20.6370   -3.0170 c3        1 NKQ     -0.020000
     25 CAY         5.2900  -21.8000   -3.7130 c2        1 NKQ     -0.169200
     26 CAZ         6.3280  -21.7030   -4.5510 c2        1 NKQ     -0.178200
     27 CBA         7.0010  -20.4260   -4.8860 c3        1 NKQ     -0.052200
     28 CBB         8.1400  -20.6080   -5.8570 c3        1 NKQ     -0.090100
     29 OBC         3.7070   -5.1030   -3.4740 oh        1 NKQ     -0.664800
     30 HAG         3.6650   -3.7210   -1.0300 h1        1 NKQ     -0.005800
     31 HAGA        4.4980   -5.1190   -0.1690 h1        1 NKQ     -0.005800
     32 HAH         4.2020   -6.5820   -2.1040 h1        1 NKQ      0.093700
     33 HAI         2.0110   -5.5680   -0.6840 h1        1 NKQ      0.044200
     34 HAIA        1.5150   -5.1330   -2.3990 h1        1 NKQ      0.044200
     35 HAL        -0.5280   -9.3920   -1.5830 hc        1 NKQ      0.055700
     36 HALA        0.5960   -9.2960   -3.0100 hc        1 NKQ      0.055700
     37 HAM         2.5710   -9.4470   -1.4030 hc        1 NKQ      0.072700
     38 HAMA        1.4070   -9.7130   -0.0460 hc        1 NKQ      0.072700
     39 HAN         0.4920  -11.7510   -1.2220 hc        1 NKQ      0.027700
     40 HANA        1.6520  -11.4810   -2.5800 hc        1 NKQ      0.027700
     41 HAO         3.5770  -11.6430   -0.9400 hc        1 NKQ      0.053200
     42 HAOA        2.3990  -11.9870    0.3830 hc        1 NKQ      0.053200
     43 HAP         1.5790  -14.0160   -0.8740 hc        1 NKQ      0.032700
     44 HAPA        2.7560  -13.6660   -2.1970 hc        1 NKQ      0.032700
     45 HAQ         3.4800  -14.2090    0.7660 hc        1 NKQ      0.048200
     46 HAQA        4.6540  -13.8450   -0.5570 hc        1 NKQ      0.048200
     47 HAR         3.7660  -15.8760   -1.8310 hc        1 NKQ      0.045700
     48 HARA        4.6510  -16.2290   -0.2980 hc        1 NKQ      0.045700
     49 HAS         1.8350  -15.9980    0.4220 ha        1 NKQ      0.127000
     50 HAT         1.4600  -18.3670   -0.0770 ha        1 NKQ      0.116000
     51 HAU         3.2450  -18.2320   -2.3800 hc        1 NKQ      0.057200
     52 HAV         2.0540  -20.4130   -0.7530 ha        1 NKQ      0.120000
     53 HAW         3.2410  -22.0450   -2.1340 ha        1 NKQ      0.116000
     54 HAX         5.4860  -20.1200   -2.4050 hc        1 NKQ      0.059200
     55 HAXA        4.3510  -19.8810   -3.7840 hc        1 NKQ      0.059200
     56 HAY         4.8350  -22.7820   -3.5060 ha        1 NKQ      0.117000
     57 HAZ         6.7340  -22.6040   -5.0400 ha        1 NKQ      0.117000
     58 HBA         7.3850  -19.9510   -3.9410 hc        1 NKQ      0.050700
     59 HBAA        6.2470  -19.7120   -5.3190 hc        1 NKQ      0.050700
     60 HBB         8.9170  -21.2880   -5.4320 hc        1 NKQ      0.033033
     61 HBBA        8.6170  -19.6230   -6.0800 hc        1 NKQ      0.033033
     62 HBBB        7.7750  -21.0490   -6.8160 hc        1 NKQ      0.033033
     63 HOBC        4.5500   -4.6210   -3.5360 ho        1 NKQ      0.446000
     64 HAUA        4.3080  -18.5460   -0.9590 hc        1 NKQ      0.057200
@<TRIPOS>BOND
     1    1    3 1   
     2    2    3 1   
     3    3    4 1   
     4    3    6 1   
     5    5   11 2   
     6    6    7 1   
     7    7    8 1   
     8    7   30 1   
     9    7   31 1   
    10    8    9 1   
    11    8   29 1   
    12    8   32 1   
    13    9   10 1   
    14    9   33 1   
    15    9   34 1   
    16   10   11 1   
    17   11   12 1   
    18   12   13 1   
    19   12   35 1   
    20   12   36 1   
    21   13   14 1   
    22   13   37 1   
    23   13   38 1   
    24   14   15 1   
    25   14   39 1   
    26   14   40 1   
    27   15   16 1   
    28   15   41 1   
    29   15   42 1   
    30   16   17 1   
    31   16   43 1   
    32   16   44 1   
    33   17   18 1   
    34   17   45 1   
    35   17   46 1   
    36   18   19 1   
    37   18   47 1   
    38   18   48 1   
    39   19   20 2   
    40   19   49 1   
    41   20   21 1   
    42   20   50 1   
    43   21   22 1   
    44   21   51 1   
    45   21   64 1   
    46   22   23 2   
    47   22   52 1   
    48   23   24 1   
    49   23   53 1   
    50   24   25 1   
    51   24   54 1   
    52   24   55 1   
    53   25   26 2   
    54   25   56 1   
    55   26   27 1   
    56   26   57 1   
    57   27   28 1   
    58   27   58 1   
    59   27   59 1   
    60   28   60 1   
    61   28   61 1   
    62   28   62 1   
    63   29   63 1   
@<TRIPOS>SUBSTRUCTURE
     1 NKQ         1 TEMP              0 ****  ****    0 ROOT
