@<TRIPOS>MOLECULE
NKR
   70    69     1     0     0
SMALL
bcc


@<TRIPOS>ATOM
      1 OAA        -0.2350   -5.7320   -0.1640 o         1 NKR     -0.927500
      2 OAB         1.7390   -7.0170   -1.1850 o         1 NKR     -0.927500
      3 PAC         0.5770   -6.0800   -1.3760 p5        1 NKR      1.308900
      4 OAD        -0.1550   -6.2300   -2.6810 o         1 NKR     -0.927500
      5 OAE         6.8670   -3.8180   -4.9050 o         1 NKR     -0.593000
      6 OAF         1.4650   -4.5850   -1.6650 os        1 NKR     -0.559200
      7 CAG         2.3000   -4.6720   -2.7410 c3        1 NKR      0.219400
      8 CAH         3.7780   -4.6320   -2.2580 c3        1 NKR      0.083100
      9 CAI         4.6950   -4.2750   -3.4220 c3        1 NKR      0.142400
     10 OAJ         5.9830   -4.8670   -3.1210 os        1 NKR     -0.409900
     11 CAK         7.0160   -4.5770   -3.9370 c         1 NKR      0.626100
     12 CAL         8.2810   -5.2780   -3.5260 c3        1 NKR     -0.136400
     13 CAM         9.4890   -4.6690   -4.2040 c3        1 NKR     -0.053200
     14 CAN        10.7390   -5.3890   -3.8730 c2        1 NKR     -0.148200
     15 CAO        11.9430   -5.0490   -4.3470 c2        1 NKR     -0.198200
     16 CAP        12.1620   -3.9070   -5.2690 c3        1 NKR     -0.020000
     17 CAQ        13.5930   -3.7080   -5.6030 c2        1 NKR     -0.147200
     18 CAR        14.0320   -3.4310   -6.8340 c2        1 NKR     -0.191200
     19 CAS        15.4600   -3.1830   -7.1550 c3        1 NKR     -0.015000
     20 CAT        15.8970   -3.9370   -8.3570 c2        1 NKR     -0.151200
     21 CAU        16.7850   -3.4660   -9.2380 c2        1 NKR     -0.187200
     22 CAV        17.2620   -4.2420  -10.4090 c3        1 NKR     -0.016000
     23 CAW        17.3390   -3.4250  -11.6460 c2        1 NKR     -0.161200
     24 CAX        17.6110   -3.9300  -12.8540 c2        1 NKR     -0.179200
     25 CAY        17.8500   -5.3710  -13.1080 c3        1 NKR     -0.020000
     26 CAZ        18.4430   -5.6470  -14.4390 c2        1 NKR     -0.167200
     27 CBA        18.5640   -6.8750  -14.9550 c2        1 NKR     -0.174200
     28 CBB        18.1030   -8.1050  -14.2680 c3        1 NKR     -0.020000
     29 CBC        18.5420   -9.3570  -14.9280 c2        1 NKR     -0.172200
     30 CBD        18.1110  -10.5720  -14.5700 c2        1 NKR     -0.173200
     31 CBE        17.1360  -10.8140  -13.4810 c3        1 NKR     -0.052200
     32 CBF        16.9200  -12.2820  -13.2130 c3        1 NKR     -0.091100
     33 OBG         3.9600   -3.6410   -1.2550 oh        1 NKR     -0.663800
     34 HAG         2.1490   -3.7830   -3.4250 h1        1 NKR     -0.005800
     35 HAGA        2.1360   -5.6210   -3.3230 h1        1 NKR     -0.005800
     36 HAH         4.0510   -5.6340   -1.8210 h1        1 NKR      0.088700
     37 HAI         4.8260   -3.1700   -3.5340 h1        1 NKR      0.045700
     38 HAIA        4.3310   -4.7240   -4.3810 h1        1 NKR      0.045700
     39 HAL         8.3790   -5.2210   -2.4100 hc        1 NKR      0.076200
     40 HALA        8.1760   -6.3610   -3.8020 hc        1 NKR      0.076200
     41 HAM         9.3290   -4.6700   -5.3190 hc        1 NKR      0.063200
     42 HAMA        9.5820   -3.5890   -3.9010 hc        1 NKR      0.063200
     43 HAN        10.6350   -6.2510   -3.1920 ha        1 NKR      0.124000
     44 HAO        12.8380   -5.6240   -4.0640 ha        1 NKR      0.114000
     45 HAP        11.7720   -2.9630   -4.7880 hc        1 NKR      0.060700
     46 HAPA       11.5510   -4.0610   -6.2020 hc        1 NKR      0.060700
     47 HAQ        14.2910   -3.7900   -4.7530 ha        1 NKR      0.116000
     48 HAR        13.3380   -3.3580   -7.6870 ha        1 NKR      0.127000
     49 HAS        16.1160   -3.4810   -6.2900 hc        1 NKR      0.049200
     50 HASA       15.6080   -2.0780   -7.3120 hc        1 NKR      0.049200
     51 HAT        15.4460   -4.9360   -8.4760 ha        1 NKR      0.127000
     52 HAU        17.2260   -2.4620   -9.1240 ha        1 NKR      0.119000
     53 HAV        16.5980   -5.1330  -10.5910 hc        1 NKR      0.052200
     54 HAVA       18.2880   -4.6480  -10.1770 hc        1 NKR      0.052200
     55 HAW        17.1530   -2.3450  -11.5240 ha        1 NKR      0.125000
     56 HAX        17.6520   -3.2690  -13.7350 ha        1 NKR      0.121000
     57 HAY        18.5310   -5.7890  -12.3110 hc        1 NKR      0.057200
     58 HAYA       16.8720   -5.9250  -13.0080 hc        1 NKR      0.057200
     59 HAZ        18.7980   -4.7710  -15.0040 ha        1 NKR      0.121000
     60 HBA        19.0200   -7.0150  -15.9490 ha        1 NKR      0.120000
     61 HBB        16.9760   -8.0890  -14.2060 hc        1 NKR      0.058200
     62 HBBA       18.4740   -8.1020  -13.2020 hc        1 NKR      0.058200
     63 HBC        19.2680   -9.2460  -15.7500 ha        1 NKR      0.119000
     64 HBD        18.4790  -11.4690  -15.0940 ha        1 NKR      0.120000
     65 HBE        17.4920  -10.3080  -12.5410 hc        1 NKR      0.049200
     66 HBEA       16.1540  -10.3340  -13.7520 hc        1 NKR      0.049200
     67 HBF        16.5310  -12.7970  -14.1240 hc        1 NKR      0.034033
     68 HBFA       16.1810  -12.4180  -12.3870 hc        1 NKR      0.034033
     69 HBFB       17.8780  -12.7740  -12.9150 hc        1 NKR      0.034033
     70 HOBG        3.1150   -3.6080   -0.7720 ho        1 NKR      0.447000
@<TRIPOS>BOND
     1    1    3 1   
     2    2    3 1   
     3    3    4 1   
     4    3    6 1   
     5    5   11 2   
     6    6    7 1   
     7    7    8 1   
     8    7   34 1   
     9    7   35 1   
    10    8    9 1   
    11    8   33 1   
    12    8   36 1   
    13    9   10 1   
    14    9   37 1   
    15    9   38 1   
    16   10   11 1   
    17   11   12 1   
    18   12   13 1   
    19   12   39 1   
    20   12   40 1   
    21   13   14 1   
    22   13   41 1   
    23   13   42 1   
    24   14   15 2   
    25   14   43 1   
    26   15   16 1   
    27   15   44 1   
    28   16   17 1   
    29   16   45 1   
    30   16   46 1   
    31   17   18 2   
    32   17   47 1   
    33   18   19 1   
    34   18   48 1   
    35   19   20 1   
    36   19   49 1   
    37   19   50 1   
    38   20   21 2   
    39   20   51 1   
    40   21   22 1   
    41   21   52 1   
    42   22   23 1   
    43   22   53 1   
    44   22   54 1   
    45   23   24 2   
    46   23   55 1   
    47   24   25 1   
    48   24   56 1   
    49   25   26 1   
    50   25   57 1   
    51   25   58 1   
    52   26   27 2   
    53   26   59 1   
    54   27   28 1   
    55   27   60 1   
    56   28   29 1   
    57   28   61 1   
    58   28   62 1   
    59   29   30 2   
    60   29   63 1   
    61   30   31 1   
    62   30   64 1   
    63   31   32 1   
    64   31   65 1   
    65   31   66 1   
    66   32   67 1   
    67   32   68 1   
    68   32   69 1   
    69   33   70 1   
@<TRIPOS>SUBSTRUCTURE
     1 NKR         1 TEMP              0 ****  ****    0 ROOT
