@<TRIPOS>MOLECULE
molecule
   70    69     1     0     0
SMALL
bcc


@<TRIPOS>ATOM
      1 OAA          0.0000     0.0000     0.0000 o          1 NKR      -0.802167
      2 OAB          2.1470     1.3150    -0.7590 o          1 NKR      -0.802167
      3 PAC          1.6100     0.0000     0.0000 p5         1 NKR       1.199900
      4 OAD          2.1030     0.0000     1.3950 o          1 NKR      -0.802167
      5 OAE          7.5250    -4.2230    -2.4670 o          1 NKR      -0.579000
      6 OAF          2.1480    -1.3150    -0.7590 os         1 NKR      -0.568200
      7 CAG          3.5320    -1.6570    -0.8360 c3         1 NKR       0.201400
      8 CAH          3.6930    -2.9580    -1.6240 c3         1 NKR       0.133100
      9 CAI          5.1810    -3.2600    -1.8130 c3         1 NKR       0.103400
     10 OAJ          5.3330    -4.4290    -2.6610 os         1 NKR      -0.409900
     11 CAK          6.5870    -4.8290    -2.9270 c          1 NKR       0.623100
     12 CAL          6.8240    -6.0350    -3.7990 c3         1 NKR      -0.147400
     13 CAM          8.3280    -6.2740    -3.9420 c3         1 NKR       0.081800
     14 CAN          8.5650    -7.4790    -4.8150 c2         1 NKR      -0.246200
     15 CAO          9.3660    -7.3940    -5.8480 c2         1 NKR      -0.231200
     16 CAP         10.1770    -6.1440    -6.0690 c3         1 NKR       0.094000
     17 CAQ         11.6320    -6.5070    -6.2150 c2         1 NKR      -0.187200
     18 CAR         12.3000    -6.1270    -7.2770 c2         1 NKR      -0.172200
     19 CAS         13.7550    -6.4920    -7.4220 c3         1 NKR      -0.011000
     20 CAT         13.9640    -7.2100    -8.7300 c2         1 NKR      -0.174200
     21 CAU         14.8510    -6.7670    -9.5870 c2         1 NKR      -0.183200
     22 CAV         15.0590    -7.4860   -10.8950 c3         1 NKR       0.058000
     23 CAW         14.8870    -6.5160   -12.0340 c2         1 NKR      -0.252200
     24 CAX         15.8190    -6.4080   -12.9490 c2         1 NKR      -0.201200
     25 CAY         16.9830    -7.3640   -12.9560 c3         1 NKR       0.233000
     26 CAZ         17.1010    -8.0020   -14.3160 c2         1 NKR      -0.205200
     27 CBA         18.2410    -7.9630   -14.9610 c2         1 NKR      -0.269200
     28 CBB         19.4770    -7.4400   -14.2760 c3         1 NKR       0.033000
     29 CBC         20.5830    -8.4570   -14.3890 c2         1 NKR      -0.291200
     30 CBD         21.7470    -8.1080   -14.8780 c2         1 NKR      -0.213200
     31 CBE         22.0350    -6.6590   -15.1750 c3         1 NKR      -0.078200
     32 CBF         23.3440    -6.2500   -14.4960 c3         1 NKR      -0.084100
     33 OBG          3.0780    -4.0300    -0.9040 oh         1 NKR      -0.588800
     34 HAG          4.0730    -0.8630    -1.3360 h1         1 NKR       0.020200
     35 HAGA         3.9280    -1.7890     0.1640 h1         1 NKR       0.020200
     36 HAH          3.2190    -2.8550    -2.5930 h1         1 NKR       0.092700
     37 HAI          5.6650    -2.4100    -2.2800 h1         1 NKR       0.050200
     38 HAIA         5.6360    -3.4500    -0.8490 h1         1 NKR       0.050200
     39 HAL          6.3610    -6.9040    -3.3470 hc         1 NKR       0.082200
     40 HALA         6.3900    -5.8640    -4.7770 hc         1 NKR       0.082200
     41 HAM          8.7900    -5.4050    -4.3940 hc         1 NKR       0.061200
     42 HAMA         8.7610    -6.4450    -2.9640 hc         1 NKR       0.061200
     43 HAN          9.2510    -7.2230    -4.0160 ha         1 NKR       0.076000
     44 HAO          8.9420    -6.5340    -6.3520 ha         1 NKR       0.074000
     45 HAP         10.0550    -5.4790    -5.2230 hc         1 NKR       0.055200
     46 HAPA         9.8370    -5.6480    -6.9700 hc         1 NKR       0.055200
     47 HAQ         12.1260    -7.0840    -5.4430 ha         1 NKR       0.131000
     48 HAR         11.8060    -5.5510    -8.0500 ha         1 NKR       0.129000
     49 HAS         14.3560    -5.5910    -7.4050 hc         1 NKR       0.049200
     50 HASA        14.0490    -7.1380    -6.6040 hc         1 NKR       0.049200
     51 HAT         13.3800    -8.0930    -8.9630 ha         1 NKR       0.127000
     52 HAU         15.4340    -5.8840    -9.3540 ha         1 NKR       0.130000
     53 HAV         16.0590    -7.9020   -10.9230 hc         1 NKR       0.042200
     54 HAVA        14.3330    -8.2840   -10.9880 hc         1 NKR       0.042200
     55 HAW         14.6270    -7.5610   -12.1460 ha         1 NKR       0.100000
     56 HAX         16.6870    -6.2380   -12.3230 ha         1 NKR      -0.001000
     57 HAY         16.8220    -8.1330   -12.2100 hc         1 NKR       0.043200
     58 HAYA        17.8950    -6.8260   -12.7290 hc         1 NKR       0.043200
     59 HAZ         17.3990    -8.5380   -13.4230 ha         1 NKR       0.021000
     60 HBA         18.4500    -6.9010   -14.9270 ha         1 NKR       0.049000
     61 HBB         19.7870    -6.5150   -14.7470 hc         1 NKR       0.055700
     62 HBBA        19.2600    -7.2570   -13.2300 hc         1 NKR       0.055700
     63 HBC         20.0310    -7.9850   -15.1920 ha         1 NKR       0.209000
     64 HBD         21.4360    -7.6560   -15.8120 ha         1 NKR       0.128000
     65 HBE         22.1250    -6.5210   -16.2460 hc         1 NKR       0.035700
     66 HBEA        21.2250    -6.0460   -14.7990 hc         1 NKR       0.035700
     67 HBF         23.2200    -6.2870   -13.4200 hc         1 NKR       0.032033
     68 HBFA        23.6060    -5.2420   -14.7940 hc         1 NKR       0.032033
     69 HBFB        24.1330    -6.9300   -14.7920 hc         1 NKR       0.032033
     70 HOBG         3.5070    -4.1360    -0.0710 ho         1 NKR       0.390000
@<TRIPOS>BOND
     1     1     3 1
     2     2     3 1
     3     3     4 1
     4     3     6 1
     5     5    11 2
     6     6     7 1
     7     7     8 1
     8     8     9 1
     9     8    33 1
    10     9    10 1
    11    10    11 1
    12    11    12 1
    13    12    13 1
    14    13    14 1
    15    14    15 2
    16    15    16 1
    17    16    17 1
    18    17    18 2
    19    18    19 1
    20    19    20 1
    21    20    21 2
    22    21    22 1
    23    22    23 1
    24    23    24 2
    25    24    25 1
    26    25    26 1
    27    26    27 2
    28    27    28 1
    29    28    29 1
    30    29    30 2
    31    30    31 1
    32    31    32 1
    33     7    34 1
    34     7    35 1
    35     8    36 1
    36     9    37 1
    37     9    38 1
    38    12    39 1
    39    12    40 1
    40    13    41 1
    41    13    42 1
    42    14    43 1
    43    15    44 1
    44    16    45 1
    45    16    46 1
    46    17    47 1
    47    18    48 1
    48    19    49 1
    49    19    50 1
    50    20    51 1
    51    21    52 1
    52    22    53 1
    53    22    54 1
    54    23    55 1
    55    24    56 1
    56    25    57 1
    57    25    58 1
    58    26    59 1
    59    27    60 1
    60    28    61 1
    61    28    62 1
    62    29    63 1
    63    30    64 1
    64    31    65 1
    65    31    66 1
    66    32    67 1
    67    32    68 1
    68    32    69 1
    69    33    70 1
@<TRIPOS>SUBSTRUCTURE
     1 NKR         1 TEMP              0 ****  ****    0 ROOT
