@<TRIPOS>MOLECULE
NKX
   54    55     1     0     0
SMALL
bcc


@<TRIPOS>ATOM
      1 CAA          0.0000     0.0000     0.0000 c3         1 NKX       0.030900
      2 OAB          3.5620    -0.1590     1.7410 o          1 NKX      -0.539300
      3 OAC          2.2750     5.0550     5.4970 o          1 NKX      -0.485800
      4 CAD          1.5300     0.0000     0.0000 c3         1 NKX       0.003100
      5 SAE          2.1500     0.0000     1.7130 sy         1 NKX       0.882300
      6 CAF          1.8770     1.6800     2.2090 cc         1 NKX       0.103400
      7 SAG          2.0080     2.2910     3.8500 ss         1 NKX      -0.026800
      8 CAH          1.5990     3.9120     3.3120 cc         1 NKX      -0.157600
      9 SAI          1.4790     5.3290     4.3530 sy         1 NKX       0.973200
     10 NAJ         -0.0870     5.4170     4.8830 nz         1 NKX      -0.128500
     11 OAK          1.3030    -0.7670     2.5580 o          1 NKX      -0.539300
     12 OAL          1.6830     6.4600     3.5170 o          1 NKX      -0.485800
     13 CAM          2.0530     1.2780    -0.6710 c3         1 NKX      -0.046400
     14 CAN          1.3220     2.4950    -0.1290 c3         1 NKX       0.108000
     15 CAO          1.5370     2.6720     1.3640 cd         1 NKX      -0.076300
     16 CAP          1.3930     3.9070     2.0000 cd         1 NKX       0.027000
     17 NAQ          1.8060     3.6900    -0.8240 n          1 NKX      -0.149800
     18 CAR          0.8750     4.5200    -1.5920 c3         1 NKX       0.043000
     19 CAS          0.2850     5.6000    -0.6830 c3         1 NKX      -0.014100
     20 OAT          3.8830     3.3390    -0.1200 o          1 NKX      -0.645000
     21 CAU          3.1100     4.0270    -0.7580 c          1 NKX       0.704100
     22 OAV          3.5550     5.1250    -1.3970 os         1 NKX      -0.409900
     23 CAW          4.9710     5.4270    -1.2820 c3         1 NKX       0.209400
     24 OAX          2.8760     6.9840    -3.0480 o          1 NKX      -0.419000
     25 CAY          5.2870     6.7000    -2.0680 c3         1 NKX       0.174100
     26 OAZ          5.0610     6.4690    -3.4600 os         1 NKX      -0.462000
     27 NBA          3.7170     6.6550    -3.8650 no         1 NKX       1.027200
     28 OBB          3.4030     6.4860    -5.0290 o          1 NKX      -0.419000
     29 CBC          6.7500     7.0870    -1.8450 c3         1 NKX       0.240400
     30 OBD          7.0140     8.3380    -2.4840 os         1 NKX      -0.482000
     31 NBE          8.3490     8.7880    -2.3380 no         1 NKX       1.022200
     32 OBF          9.1510     8.1220    -1.7090 o          1 NKX      -0.408000
     33 OBG          8.6940     9.8440    -2.8390 o          1 NKX      -0.408000
     34 HAA         -0.3610     0.3500    -0.9600 hc         1 NKX       0.016367
     35 HAAA        -0.3610     0.6560     0.7830 hc         1 NKX       0.016367
     36 HAAB        -0.3610    -1.0060     0.1770 hc         1 NKX       0.016367
     37 HAD          1.9040    -0.8700    -0.5260 h1         1 NKX       0.100700
     38 HNAJ        -0.3330     4.5620     5.3410 hn         1 NKX       0.314800
     39 HNAA        -0.1800     6.1780     5.5270 hn         1 NKX       0.314800
     40 HAM          1.8440     1.2070    -1.7320 hc         1 NKX       0.069200
     41 HAMA         3.1030     1.3800    -0.4240 hc         1 NKX       0.069200
     42 HAN          0.2610     2.3790    -0.3180 h1         1 NKX       0.059700
     43 HAP          1.1280     4.8050     1.4570 ha         1 NKX       0.146000
     44 HAR          1.4020     4.9880    -2.4140 h1         1 NKX       0.045700
     45 HARA         0.0760     3.9000    -1.9810 h1         1 NKX       0.045700
     46 HAS          1.0820     6.0770    -0.1250 hc         1 NKX       0.010033
     47 HASA        -0.4180     5.1470     0.0070 hc         1 NKX       0.010033
     48 HASB        -0.2270     6.3400    -1.2860 hc         1 NKX       0.010033
     49 HAW          5.5500     4.6030    -1.6810 h1         1 NKX       0.034200
     50 HAWA         5.2250     5.5740    -0.2390 h1         1 NKX       0.034200
     51 HAY          4.6450     7.5040    -1.7280 h1         1 NKX       0.059700
     52 HBC          6.9430     7.1760    -0.7830 h1         1 NKX       0.033700
     53 HBCA         7.3940     6.3230    -2.2660 h1         1 NKX       0.033700
     54 HAJ3        -0.6980     5.5490     4.1010 hn         1 NKX       0.314800
@<TRIPOS>BOND
     1     1     4 1   
     2     1    34 1   
     3     1    35 1   
     4     1    36 1   
     5     2     5 2   
     6     3     9 2   
     7     4     5 1   
     8     4    13 1   
     9     4    37 1   
    10     5     6 1   
    11     5    11 2   
    12     6     7 1   
    13     6    15 2   
    14     7     8 1   
    15     8     9 1   
    16     8    16 2   
    17     9    10 1   
    18     9    12 2   
    19    10    38 1   
    20    10    39 1   
    21    10    54 1   
    22    13    14 1   
    23    13    40 1   
    24    13    41 1   
    25    14    15 1   
    26    14    17 1   
    27    14    42 1   
    28    15    16 1   
    29    16    43 1   
    30    17    18 1   
    31    17    21 1   
    32    18    19 1   
    33    18    44 1   
    34    18    45 1   
    35    19    46 1   
    36    19    47 1   
    37    19    48 1   
    38    20    21 2   
    39    21    22 1   
    40    22    23 1   
    41    23    25 1   
    42    23    49 1   
    43    23    50 1   
    44    24    27 1   
    45    25    26 1   
    46    25    29 1   
    47    25    51 1   
    48    26    27 1   
    49    27    28 1   
    50    29    30 1   
    51    29    52 1   
    52    29    53 1   
    53    30    31 1   
    54    31    32 1   
    55    31    33 1   
@<TRIPOS>SUBSTRUCTURE
     1 NKX         1 TEMP              0 ****  ****    0 ROOT
