@<TRIPOS>MOLECULE
molecule
   57    61     1     0     0
SMALL
bcc


@<TRIPOS>ATOM
      1 C01          0.0000     0.0000     0.0000 c3         1 NL4       0.098300
      2 N02          1.4650     0.0000     0.0000 n          1 NL4      -0.494800
      3 C03          2.1970     0.0000     1.2680 c3         1 NL4       0.098300
      4 C04          2.1390     0.0010    -1.1670 c          1 NL4       0.674700
      5 O05          1.5350     0.1090    -2.2160 o          1 NL4      -0.601100
      6 C06          3.6110    -0.1280    -1.1700 ca         1 NL4      -0.148600
      7 C07          4.2470    -0.9290    -0.2190 ca         1 NL4      -0.103000
      8 C08          5.6200    -1.0470    -0.2280 ca         1 NL4      -0.143000
      9 C09          6.3700    -0.3730    -1.1780 ca         1 NL4      -0.070000
     10 C10          5.7460     0.4210    -2.1230 ca         1 NL4      -0.128300
     11 C11          6.5700     1.1510    -3.1520 c3         1 NL4       0.127600
     12 N12          6.7390     0.3020    -4.3340 na         1 NL4       0.070400
     13 C13          6.4210     0.6370    -5.6000 cc         1 NL4      -0.075300
     14 C14          6.7310    -0.4260    -6.3990 cd         1 NL4      -0.290300
     15 C15          6.5480    -0.5010    -7.8700 ca         1 NL4       0.051000
     16 C16          7.2700     0.3330    -8.7280 ca         1 NL4      -0.098900
     17 Cl1          8.4040     1.4810    -8.0870 cl         1 NL4      -0.097400
     18 C18          7.0720     0.2330   -10.0930 ca         1 NL4       0.432200
     19 N19          6.2180    -0.6300   -10.6040 nb         1 NL4      -0.642000
     20 C20          5.5020    -1.4490    -9.8350 ca         1 NL4       0.593300
     21 N21          4.5840    -2.4000   -10.1080 nc         1 NL4      -0.678700
     22 C22          4.1570    -2.9420    -8.9920 cd         1 NL4       0.551400
     23 C23          3.1490    -4.0170    -8.8980 cd         1 NL4      -0.343200
     24 C24          2.6830    -4.6030    -7.7410 cc         1 NL4      -0.093300
     25 N25          1.7770    -5.5330    -8.0970 na         1 NL4       0.081400
     26 C26          1.0300    -6.3960    -7.1790 c3         1 NL4       0.061600
     27 N27          1.6700    -5.5340    -9.4920 nc         1 NL4      -0.517800
     28 C28          2.4780    -4.6310    -9.9780 cd         1 NL4       0.398600
     29 C29          2.6640    -4.3040   -11.4370 c3         1 NL4      -0.109400
     30 N30          4.7870    -2.3590    -7.9270 na         1 NL4      -0.258300
     31 C31          5.6520    -1.4120    -8.4380 ca         1 NL4      -0.205500
     32 C32          7.2560    -1.4390    -5.5730 cd         1 NL4       0.348200
     33 N33          7.2640    -0.9970    -4.3440 nc         1 NL4      -0.510800
     34 C34          4.3720     0.5430    -2.1280 ca         1 NL4      -0.056000
     35 H011        -0.3610    -0.1680     1.0070 h1         1 NL4       0.043033
     36 H012        -0.3610    -0.7880    -0.6490 h1         1 NL4       0.043033
     37 H013        -0.3610     0.9560    -0.3580 h1         1 NL4       0.043033
     38 H031         1.5990     0.4850     2.0300 h1         1 NL4       0.043033
     39 H032         2.4020    -1.0210     1.5670 h1         1 NL4       0.043033
     40 H033         3.1310     0.5360     1.1470 h1         1 NL4       0.043033
     41 H07          3.6620    -1.4570     0.5240 ha         1 NL4       0.143000
     42 H34          3.8850     1.1650    -2.8690 ha         1 NL4       0.151000
     43 H08          6.1140    -1.6670     0.5090 ha         1 NL4       0.137000
     44 H09          7.4490    -0.4690    -1.1800 ha         1 NL4       0.143000
     45 H111         7.5420     1.3870    -2.7360 h1         1 NL4       0.069200
     46 H112         6.0660     2.0670    -3.4350 h1         1 NL4       0.069200
     47 H13          5.9040     1.5370    -5.9110 h4         1 NL4       0.181000
     48 H32          7.6000    -2.4130    -5.9000 h4         1 NL4       0.053100
     49 H18          7.6320     0.8800   -10.7570 h4         1 NL4       0.037100
     50 H30          4.6510    -2.5800    -6.9600 hn         1 NL4       0.308700
     51 H24          3.0800    -4.4480    -6.7450 h4         1 NL4       0.169000
     52 H261         0.3010    -6.9710    -7.7360 h1         1 NL4       0.058700
     53 H262         1.7150    -7.0700    -6.6790 h1         1 NL4       0.058700
     54 H263         0.5220    -5.7860    -6.4420 h1         1 NL4       0.058700
     55 H291         2.4140    -3.2640   -11.6080 hc         1 NL4       0.061700
     56 H292         2.0170    -4.9340   -12.0340 hc         1 NL4       0.061700
     57 H293         3.6960    -4.4780   -11.7170 hc         1 NL4       0.061700
@<TRIPOS>BOND
     1     1     2 1
     2     2     3 1
     3     2     4 1
     4     4     5 2
     5     4     6 1
     6     6     7 ar
     7     6    34 ar
     8     7     8 ar
     9     8     9 ar
    10     9    10 ar
    11    10    11 1
    12    10    34 ar
    13    11    12 1
    14    12    13 1
    15    12    33 1
    16    13    14 2
    17    14    15 1
    18    14    32 1
    19    15    16 ar
    20    15    31 ar
    21    16    17 1
    22    16    18 ar
    23    18    19 ar
    24    19    20 ar
    25    20    21 1
    26    20    31 ar
    27    21    22 2
    28    22    23 1
    29    22    30 1
    30    23    24 2
    31    23    28 1
    32    24    25 1
    33    25    26 1
    34    25    27 1
    35    27    28 2
    36    28    29 1
    37    30    31 1
    38    32    33 2
    39     1    35 1
    40     1    36 1
    41     1    37 1
    42     3    38 1
    43     3    39 1
    44     3    40 1
    45     7    41 1
    46    34    42 1
    47     8    43 1
    48     9    44 1
    49    11    45 1
    50    11    46 1
    51    13    47 1
    52    32    48 1
    53    18    49 1
    54    30    50 1
    55    24    51 1
    56    26    52 1
    57    26    53 1
    58    26    54 1
    59    29    55 1
    60    29    56 1
    61    29    57 1
@<TRIPOS>SUBSTRUCTURE
     1 NL4         1 TEMP              0 ****  ****    0 ROOT
