@<TRIPOS>MOLECULE
NL4
   57    61     1     0     0
SMALL
bcc


@<TRIPOS>ATOM
      1 C01          0.0000     0.0000     0.0000 c3         1 NL4       0.081300
      2 N02          1.4650     0.0000     0.0000 n          1 NL4      -0.157800
      3 C03          2.1970     0.0000     1.2680 c3         1 NL4       0.081300
      4 C04          2.1390     0.0010    -1.1670 c          1 NL4       0.608700
      5 O05          1.5350     0.1090    -2.2160 o          1 NL4      -0.644100
      6 C06          3.6110    -0.1280    -1.1700 ca         1 NL4      -0.153600
      7 C07          4.2470    -0.9290    -0.2190 ca         1 NL4      -0.091000
      8 C08          5.6200    -1.0470    -0.2280 ca         1 NL4      -0.110000
      9 C09          6.3700    -0.3730    -1.1780 ca         1 NL4      -0.039000
     10 C10          5.7460     0.4210    -2.1230 ca         1 NL4      -0.142300
     11 C11          6.5700     1.1510    -3.1520 c3         1 NL4       0.056600
     12 N12          6.7390     0.3020    -4.3340 na         1 NL4       0.498400
     13 C13          6.4210     0.6370    -5.6000 cc         1 NL4      -0.219300
     14 C14          6.7310    -0.4260    -6.3990 cd         1 NL4      -0.295300
     15 C15          6.5480    -0.5010    -7.8700 ca         1 NL4       0.074000
     16 C16          7.2700     0.3330    -8.7280 ca         1 NL4      -0.159900
     17 Cl1          8.4040     1.4810    -8.0870 cl         1 NL4      -0.013400
     18 C18          7.0720     0.2330   -10.0930 ca         1 NL4       0.395200
     19 N19          6.2180    -0.6300   -10.6040 nb         1 NL4      -0.514000
     20 C20          5.5020    -1.4490    -9.8350 ca         1 NL4       0.506300
     21 N21          4.5840    -2.4000   -10.1080 nc         1 NL4      -0.596700
     22 C22          4.1570    -2.9420    -8.9920 cd         1 NL4       0.341400
     23 C23          3.1490    -4.0170    -8.8980 cd         1 NL4      -0.344200
     24 C24          2.6830    -4.6030    -7.7410 cc         1 NL4      -0.251300
     25 N25          1.7770    -5.5330    -8.0970 na         1 NL4       0.512400
     26 C26          1.0300    -6.3960    -7.1790 c3         1 NL4       0.019600
     27 N27          1.6700    -5.5340    -9.4920 nc         1 NL4      -0.658800
     28 C28          2.4780    -4.6310    -9.9780 cd         1 NL4       0.424600
     29 C29          2.6640    -4.3040   -11.4370 c3         1 NL4      -0.010400
     30 N30          4.7870    -2.3590    -7.9270 na         1 NL4       0.276700
     31 C31          5.6520    -1.4120    -8.4380 ca         1 NL4      -0.386500
     32 C32          7.2560    -1.4390    -5.5730 cd         1 NL4       0.406200
     33 N33          7.2640    -0.9970    -4.3440 nc         1 NL4      -0.647800
     34 C34          4.3720     0.5430    -2.1280 ca         1 NL4      -0.025000
     35 H011        -0.3610    -0.1680     1.0070 h1         1 NL4       0.013200
     36 H012        -0.3610    -0.7880    -0.6490 h1         1 NL4       0.013200
     37 H013        -0.3610     0.9560    -0.3580 h1         1 NL4       0.013200
     38 H031         1.5990     0.4850     2.0300 h1         1 NL4       0.013200
     39 H032         2.4020    -1.0210     1.5670 h1         1 NL4       0.013200
     40 H033         3.1310     0.5360     1.1470 h1         1 NL4       0.013200
     41 H07          3.6620    -1.4570     0.5240 ha         1 NL4       0.122000
     42 H34          3.8850     1.1650    -2.8690 ha         1 NL4       0.122000
     43 H08          6.1140    -1.6670     0.5090 ha         1 NL4       0.109000
     44 H09          7.4490    -0.4690    -1.1800 ha         1 NL4       0.115000
     45 H111         7.5420     1.3870    -2.7360 h1         1 NL4       0.036200
     46 H112         6.0660     2.0670    -3.4350 h1         1 NL4       0.036200
     47 H13          5.9040     1.5370    -5.9110 h4         1 NL4       0.154000
     48 H32          7.6000    -2.4130    -5.9000 h4         1 NL4       0.007100
     49 H18          7.6320     0.8800   -10.7570 h4         1 NL4      -0.011900
     50 H30          4.6510    -2.5800    -6.9600 hn         1 NL4       0.133700
     51 H24          3.0800    -4.4480    -6.7450 h4         1 NL4       0.141000
     52 H261         0.3010    -6.9710    -7.7360 h1         1 NL4       0.023367
     53 H262         1.7150    -7.0700    -6.6790 h1         1 NL4       0.023367
     54 H263         0.5220    -5.7860    -6.4420 h1         1 NL4       0.023367
     55 H291         2.4140    -3.2640   -11.6080 hc         1 NL4       0.021367
     56 H292         2.0170    -4.9340   -12.0340 hc         1 NL4       0.021367
     57 H293         3.6960    -4.4780   -11.7170 hc         1 NL4       0.021367
@<TRIPOS>BOND
     1     1     2 1   
     2     1    35 1   
     3     1    36 1   
     4     1    37 1   
     5     2     3 1   
     6     2     4 1   
     7     3    38 1   
     8     3    39 1   
     9     3    40 1   
    10     4     5 2   
    11     4     6 1   
    12     6     7 ar  
    13     6    34 ar  
    14     7     8 ar  
    15     7    41 1   
    16     8     9 ar  
    17     8    43 1   
    18     9    10 ar  
    19     9    44 1   
    20    10    11 1   
    21    10    34 ar  
    22    11    12 1   
    23    11    45 1   
    24    11    46 1   
    25    12    13 1   
    26    12    33 1   
    27    13    14 2   
    28    13    47 1   
    29    14    15 1   
    30    14    32 1   
    31    15    16 ar  
    32    15    31 ar  
    33    16    17 1   
    34    16    18 ar  
    35    18    19 ar  
    36    18    49 1   
    37    19    20 ar  
    38    20    21 1   
    39    20    31 ar  
    40    21    22 2   
    41    22    23 1   
    42    22    30 1   
    43    23    24 2   
    44    23    28 1   
    45    24    25 1   
    46    24    51 1   
    47    25    26 1   
    48    25    27 1   
    49    26    52 1   
    50    26    53 1   
    51    26    54 1   
    52    27    28 2   
    53    28    29 1   
    54    29    55 1   
    55    29    56 1   
    56    29    57 1   
    57    30    31 1   
    58    30    50 1   
    59    32    33 2   
    60    32    48 1   
    61    34    42 1   
@<TRIPOS>SUBSTRUCTURE
     1 NL4         1 TEMP              0 ****  ****    0 ROOT
