@<TRIPOS>MOLECULE
molecule
   23    24     1     0     0
SMALL
bcc


@<TRIPOS>ATOM
      1 C1           0.0000     0.0000     0.0000 ca         1 NLA      -0.029000
      2 C2           1.4040     0.0000     0.0000 ca         1 NLA       0.018700
      3 C3           2.0770     0.0000     1.1840 ca         1 NLA      -0.147000
      4 C4           1.3940    -0.0040     2.3970 ca         1 NLA      -0.108000
      5 C5           0.0330    -0.0090     2.4350 ca         1 NLA      -0.165000
      6 C6          -0.6960    -0.0090     1.2340 ca         1 NLA      -0.025000
      7 C7          -2.1010    -0.0140     1.2340 ca         1 NLA      -0.137000
      8 C8          -2.7730    -0.0140     0.0510 ca         1 NLA      -0.133000
      9 C9          -2.0890    -0.0100    -1.1630 ca         1 NLA      -0.163000
     10 C10         -0.7290    -0.0060    -1.2020 ca         1 NLA      -0.075000
     11 C11          2.1630     0.0040    -1.3020 c3         1 NLA      -0.158100
     12 C12          2.4210    -1.4130    -1.7380 c          1 NLA       0.891600
     13 O1           2.0290    -2.3340    -1.0620 o          1 NLA      -0.840800
     14 O2           3.0860    -1.6540    -2.8790 o          1 NLA      -0.840800
     15 H31          3.1600     0.0040     1.1820 ha         1 NLA       0.128000
     16 H41          1.9540    -0.0040     3.3250 ha         1 NLA       0.106000
     17 H51         -0.4850    -0.0110     3.3870 ha         1 NLA       0.110000
     18 H71         -2.6460    -0.0170     2.1700 ha         1 NLA       0.113000
     19 H81         -3.8570    -0.0180     0.0530 ha         1 NLA       0.106000
     20 H91         -2.6490    -0.0100    -2.0910 ha         1 NLA       0.113000
     21 H101        -0.2110    -0.0030    -2.1530 ha         1 NLA       0.152000
     22 H111         3.1070     0.5180    -1.1680 hc         1 NLA       0.042200
     23 H112         1.5790     0.5140    -2.0580 hc         1 NLA       0.042200
@<TRIPOS>BOND
     1     1     2 ar
     2     1     6 ar
     3     1    10 ar
     4     2     3 ar
     5     2    11 1
     6     3     4 ar
     7     3    15 1
     8     4     5 ar
     9     4    16 1
    10     5     6 ar
    11     5    17 1
    12     6     7 ar
    13     7     8 ar
    14     7    18 1
    15     8     9 ar
    16     8    19 1
    17     9    10 ar
    18     9    20 1
    19    10    21 1
    20    11    12 1
    21    11    22 1
    22    11    23 1
    23    12    13 1
    24    12    14 1
@<TRIPOS>SUBSTRUCTURE
     1 NLA         1 TEMP              0 ****  ****    0 ROOT
