@<TRIPOS>MOLECULE
NLA
   23    24     1     0     0
SMALL
bcc


@<TRIPOS>ATOM
      1 C1          0.0330   -0.0370    0.0140 ca        1 NLA     -0.044000
      2 C2          1.4620   -0.0920    0.1010 ca        1 NLA      0.023700
      3 C3          2.0550   -0.1130    1.3520 ca        1 NLA     -0.171000
      4 C4          1.2840   -0.0390    2.5300 ca        1 NLA     -0.114000
      5 C5         -0.0840    0.0720    2.4640 ca        1 NLA     -0.169000
      6 C6         -0.7360    0.0750    1.2020 ca        1 NLA     -0.029000
      7 C7         -2.1520    0.1750    1.1090 ca        1 NLA     -0.151000
      8 C8         -2.7760    0.1400   -0.1130 ca        1 NLA     -0.130000
      9 C9         -2.0150   -0.0150   -1.2950 ca        1 NLA     -0.172000
     10 C10        -0.6460   -0.1070   -1.2360 ca        1 NLA     -0.081000
     11 C11         2.3050   -0.0740   -1.1160 c3        1 NLA     -0.187100
     12 C12         2.3410   -1.4250   -1.8810 c         1 NLA      0.922600
     13 O1          3.1910   -2.2830   -1.5230 o         1 NLA     -0.833300
     14 O2          1.5460   -1.5580   -2.8550 o         1 NLA     -0.833300
     15 H31         3.1490   -0.1960    1.4340 ha        1 NLA      0.131000
     16 H41         1.7940   -0.0650    3.5030 ha        1 NLA      0.108000
     17 H51        -0.6920    0.1500    3.3750 ha        1 NLA      0.109000
     18 H71        -2.7330    0.2750    2.0370 ha        1 NLA      0.110000
     19 H81        -3.8700    0.2180   -0.1850 ha        1 NLA      0.107000
     20 H91        -2.5350   -0.0760   -2.2610 ha        1 NLA      0.119000
     21 H101       -0.0420   -0.2920   -2.1500 ha        1 NLA      0.203000
     22 H111        1.9270    0.7100   -1.8220 hc        1 NLA      0.039200
     23 H112        3.3620    0.1810   -0.8430 hc        1 NLA      0.039200
@<TRIPOS>BOND
     1    1    2 ar  
     2    1    6 ar  
     3    1   10 ar  
     4    2    3 ar  
     5    2   11 1   
     6    3    4 ar  
     7    3   15 1   
     8    4    5 ar  
     9    4   16 1   
    10    5    6 ar  
    11    5   17 1   
    12    6    7 ar  
    13    7    8 ar  
    14    7   18 1   
    15    8    9 ar  
    16    8   19 1   
    17    9   10 ar  
    18    9   20 1   
    19   10   21 1   
    20   11   12 1   
    21   11   22 1   
    22   11   23 1   
    23   12   13 1   
    24   12   14 1   
@<TRIPOS>SUBSTRUCTURE
     1 NLA         1 TEMP              0 ****  ****    0 ROOT
