@<TRIPOS>MOLECULE
molecule
   51    52     1     0     0
SMALL
bcc


@<TRIPOS>ATOM
      1 C1           0.0000     0.0000     0.0000 c3         1 NLC       0.309900
      2 O1          -0.4750    -1.1520     0.6990 oh         1 NLC      -0.629800
      3 C2           1.5290     0.0000     0.0000 c3         1 NLC       0.073700
      4 N            2.0180    -1.1980    -0.6880 ns         1 NLC      -0.578900
      5 C7           2.2470    -1.1650    -2.0150 c          1 NLC       0.657100
      6 C8           2.7510    -2.3970    -2.7230 c3         1 NLC      -0.172100
      7 O7           2.0480    -0.1460    -2.6400 o          1 NLC      -0.607100
      8 C3           2.0300     0.0000     1.4490 c3         1 NLC       0.133100
      9 O3           3.4510     0.1520     1.4710 oh         1 NLC      -0.571800
     10 C4           1.3780     1.1700     2.1940 c3         1 NLC       0.104100
     11 O4           1.7120     1.1010     3.5810 os         1 NLC      -0.366600
     12 C5          -0.1410     1.0810     2.0280 c3         1 NLC       0.119100
     13 C6          -0.8030     2.2280     2.7960 c3         1 NLC       0.143400
     14 O6          -2.2230     2.0900     2.7270 oh         1 NLC      -0.601800
     15 O5          -0.4830     1.1770     0.6470 os         1 NLC      -0.392600
     16 C12          2.5680     2.4050     5.4270 c3         1 NLC       0.125100
     17 O12          1.3150     2.2840     6.1020 oh         1 NLC      -0.603800
     18 C13          3.2140     3.7490     5.7790 c3         1 NLC       0.109100
     19 O13          3.5650     3.7680     7.1630 oh         1 NLC      -0.593800
     20 C14          4.4730     3.9240     4.9250 c3         1 NLC       0.098100
     21 C15          4.1060     3.7440     3.4510 c3         1 NLC       0.137100
     22 C16          5.3530     3.9500     2.5890 c3         1 NLC       0.150400
     23 C10          2.3430     2.3390     3.9140 c3         1 NLC       0.324900
     24 O16          5.0110     3.7890     1.2100 oh         1 NLC      -0.590800
     25 O15          3.5940     2.4300     3.2380 os         1 NLC      -0.367600
     26 O40          5.4450     2.9480     5.2980 oh         1 NLC      -0.573800
     27 H1          -0.3580    -0.0190    -1.0220 h2         1 NLC       0.082700
     28 HA          -1.2050    -1.5240     0.2310 ho         1 NLC       0.415000
     29 H2           1.8890     0.8870    -0.5060 h1         1 NLC       0.117700
     30 H            2.1550    -2.0480    -0.1770 hn         1 NLC       0.316500
     31 H8C1         2.0380    -3.2020    -2.5990 hc         1 NLC       0.061367
     32 H8C2         2.8740    -2.1820    -3.7780 hc         1 NLC       0.061367
     33 H8C3         3.7050    -2.6910    -2.3010 hc         1 NLC       0.061367
     34 H3           1.7530    -0.9320     1.9270 h1         1 NLC       0.055700
     35 HB           3.8530    -0.6800     1.6550 ho         1 NLC       0.399000
     36 H4           1.7320     2.1050     1.7770 h1         1 NLC       0.080700
     37 H5          -0.4890     0.1320     2.4180 h1         1 NLC       0.087700
     38 H6C1        -0.5100     3.1730     2.3550 h1         1 NLC       0.036700
     39 H6C2        -0.4870     2.1990     3.8310 h1         1 NLC       0.036700
     40 H6          -2.6310     2.8450     3.1180 ho         1 NLC       0.401000
     41 H12          3.2260     1.5990     5.7280 h1         1 NLC       0.086700
     42 HD           1.4350     1.8080     6.9060 ho         1 NLC       0.417000
     43 H13          2.5180     4.5510     5.5650 h1         1 NLC       0.045700
     44 HC           3.2910     4.5850     7.5450 ho         1 NLC       0.405000
     45 H14          4.8760     4.9190     5.0770 h1         1 NLC       0.037700
     46 H15          3.3500     4.4700     3.1780 h1         1 NLC       0.047700
     47 H161         5.7420     4.9480     2.7500 h1         1 NLC       0.036200
     48 H162         6.1050     3.2200     2.8620 h1         1 NLC       0.036200
     49 H10          1.7110     3.1640     3.6100 h2         1 NLC       0.032700
     50 H16          5.6540     4.2220     0.6740 ho         1 NLC       0.401000
     51 H40          6.1540     3.3690     5.7560 ho         1 NLC       0.404000
@<TRIPOS>BOND
     1     1     2 1
     2     1     3 1
     3     1    15 1
     4     1    27 1
     5     2    28 1
     6     3     4 1
     7     3     8 1
     8     3    29 1
     9     4     5 1
    10     4    30 1
    11     5     6 1
    12     5     7 2
    13     6    31 1
    14     6    32 1
    15     6    33 1
    16     8     9 1
    17     8    10 1
    18     8    34 1
    19     9    35 1
    20    10    11 1
    21    10    12 1
    22    10    36 1
    23    11    23 1
    24    12    13 1
    25    12    15 1
    26    12    37 1
    27    13    14 1
    28    13    38 1
    29    13    39 1
    30    14    40 1
    31    16    17 1
    32    16    18 1
    33    16    23 1
    34    16    41 1
    35    17    42 1
    36    18    19 1
    37    18    20 1
    38    18    43 1
    39    19    44 1
    40    20    21 1
    41    20    26 1
    42    20    45 1
    43    21    22 1
    44    21    25 1
    45    21    46 1
    46    22    24 1
    47    22    47 1
    48    22    48 1
    49    23    25 1
    50    23    49 1
    51    24    50 1
    52    26    51 1
@<TRIPOS>SUBSTRUCTURE
     1 NLC         1 TEMP              0 ****  ****    0 ROOT
