@<TRIPOS>MOLECULE
molecule
   48    49     1     0     0
SMALL
bcc


@<TRIPOS>ATOM
      1 O19          0.0000     0.0000     0.0000 o          1 NLD      -0.562000
      2 C15          1.2090     0.0000     0.0000 c          1 NLD       0.630100
      3 C16          1.9620     0.0000     1.3050 c3         1 NLD      -0.110400
      4 C17          0.9670    -0.0010     2.4680 c3         1 NLD      -0.149400
      5 C18          1.7200    -0.0010     3.7730 c          1 NLD       0.655100
      6 O14          1.8800    -0.0040    -1.1630 os         1 NLD      -0.424900
      7 C13          1.0900    -0.0100    -2.3800 c3         1 NLD       0.152400
      8 C7           2.0220    -0.0150    -3.5940 c3         1 NLD      -0.079700
      9 C6           1.2070    -0.1460    -4.8930 c3         1 NLD       0.209800
     10 N2           1.4920     1.0540    -5.7080 n3         1 NLD      -0.704600
     11 C10          0.3080     1.4640    -6.4750 c3         1 NLD       0.143100
     12 C9           1.8940     2.1120    -4.7450 c3         1 NLD       0.138800
     13 C8           2.7550     1.3420    -3.7120 c3         1 NLD      -0.079400
     14 C2           1.6290    -1.3850    -5.6400 ca         1 NLD      -0.204600
     15 C1           2.7750    -1.3810    -6.4110 ca         1 NLD       0.448200
     16 N1           3.1510    -2.4620    -7.0680 nb         1 NLD      -0.693000
     17 C5           2.4550    -3.5800    -7.0170 ca         1 NLD       0.418200
     18 C4           1.2970    -3.6600    -6.2660 ca         1 NLD      -0.258300
     19 C3           0.8740    -2.5460    -5.5570 ca         1 NLD      -0.094000
     20 O20          2.9330    -0.0010     3.7730 o          1 NLD      -0.614100
     21 N21          1.0460    -0.0030     4.9400 ns         1 NLD      -0.586900
     22 C22          1.7780    -0.0030     6.2100 c3         1 NLD       0.110000
     23 C23          0.7830    -0.0040     7.3720 c3         1 NLD      -0.113100
     24 H161         2.5850    -0.8840     1.3620 hc         1 NLD       0.090200
     25 H162         2.5840     0.8850     1.3630 hc         1 NLD       0.090200
     26 H171         0.3440     0.8830     2.4110 hc         1 NLD       0.075200
     27 H172         0.3450    -0.8860     2.4100 hc         1 NLD       0.075200
     28 H131         0.4650    -0.8950    -2.4010 h1         1 NLD       0.050200
     29 H132         0.4640     0.8740    -2.4090 h1         1 NLD       0.050200
     30 H7           2.7400    -0.8230    -3.5200 hc         1 NLD       0.081700
     31 H6           0.1500    -0.1900    -4.6610 h1         1 NLD       0.043700
     32 H81C         3.7620     1.2000    -4.0850 hc         1 NLD       0.061200
     33 H82C         2.7600     1.8570    -2.7600 hc         1 NLD       0.061200
     34 H101         0.5200     2.3890    -6.9980 h1         1 NLD       0.036367
     35 H102         0.0590     0.6920    -7.1930 h1         1 NLD       0.036367
     36 H103        -0.5260     1.6130    -5.8000 h1         1 NLD       0.036367
     37 H91C         2.4840     2.8730    -5.2400 h1         1 NLD       0.046200
     38 H92C         1.0220     2.5430    -4.2680 h1         1 NLD       0.046200
     39 H1           3.3730    -0.4800    -6.4780 h4         1 NLD       0.042100
     40 H3          -0.0290    -2.5780    -4.9600 ha         1 NLD       0.134000
     41 H5           2.7930    -4.4470    -7.5720 h4         1 NLD       0.021100
     42 H4           0.7320    -4.5830    -6.2260 ha         1 NLD       0.137000
     43 H231         0.1600     0.8800     7.3150 hc         1 NLD       0.043033
     44 H232         0.1610    -0.8890     7.3150 hc         1 NLD       0.043033
     45 H233         1.3250    -0.0040     8.3110 hc         1 NLD       0.043033
     46 H221         2.4000     0.8820     6.2680 h1         1 NLD       0.053700
     47 H222         2.4010    -0.8870     6.2670 h1         1 NLD       0.053700
     48 H21          0.0450    -0.0030     4.9400 hn         1 NLD       0.315500
@<TRIPOS>BOND
     1     1     2 2
     2     2     3 1
     3     2     6 1
     4     3     4 1
     5     4     5 1
     6     6     7 1
     7     7     8 1
     8     8     9 1
     9     8    13 1
    10     9    10 1
    11     9    14 1
    12    10    11 1
    13    10    12 1
    14    12    13 1
    15    14    15 ar
    16    14    19 ar
    17    15    16 ar
    18    16    17 ar
    19    17    18 ar
    20    18    19 ar
    21     5    20 2
    22     5    21 1
    23    21    22 1
    24    22    23 1
    25     3    24 1
    26     3    25 1
    27     4    26 1
    28     4    27 1
    29     7    28 1
    30     7    29 1
    31     8    30 1
    32     9    31 1
    33    13    32 1
    34    13    33 1
    35    11    34 1
    36    11    35 1
    37    11    36 1
    38    12    37 1
    39    12    38 1
    40    15    39 1
    41    19    40 1
    42    17    41 1
    43    18    42 1
    44    23    43 1
    45    23    44 1
    46    23    45 1
    47    22    46 1
    48    22    47 1
    49    21    48 1
@<TRIPOS>SUBSTRUCTURE
     1 NLD         1 TEMP              0 ****  ****    0 ROOT
