@<TRIPOS>MOLECULE
NLG
   22    21     1     0     0
SMALL
bcc


@<TRIPOS>ATOM
      1 CA           1.5070     0.0000     0.0000 c3         1 NLG      -0.114300
      2 C            0.0000     0.0000     0.0000 c          1 NLG       0.987600
      3 OXT         -0.6710     1.1610    -0.0010 o          1 NLG      -0.912300
      4 O           -0.6040    -1.0470    -0.0000 o          1 NLG      -0.912300
      5 CB           2.0170     0.0000     1.4420 c3         1 NLG      -0.013400
      6 CG           3.5460     0.0010     1.4410 c3         1 NLG      -0.142400
      7 CD           4.0480    -0.0000     2.8620 c          1 NLG       0.983600
      8 OE1          3.2640    -0.0000     3.7800 o          1 NLG      -0.921800
      9 OE2          5.3670     0.0010     3.1070 o          1 NLG      -0.921800
     10 C7           2.2190     1.1620    -2.0200 c          1 NLG       0.547100
     11 C8           2.7210     2.3910    -2.7310 c3         1 NLG      -0.074100
     12 O7           2.0160     0.1410    -2.6430 o          1 NLG      -0.704100
     13 N2           1.9940     1.1950    -0.6910 ns         1 NLG      -0.085900
     14 HA           1.8680    -0.8850    -0.5110 h1         1 NLG       0.050700
     15 HBC1         1.6560    -0.8850     1.9520 hc         1 NLG       0.031700
     16 HBC2         1.6550     0.8840     1.9520 hc         1 NLG       0.031700
     17 HGC1         3.9070    -0.8830     0.9300 hc         1 NLG       0.000700
     18 HGC2         3.9060     0.8860     0.9310 hc         1 NLG       0.000700
     19 H8C1         2.1730     3.2590    -2.3820 hc         1 NLG       0.003367
     20 H8C2         2.5750     2.2770    -3.7980 hc         1 NLG       0.003367
     21 H8C3         3.7760     2.5230    -2.5230 hc         1 NLG       0.003367
     22 H2           2.1360     2.0440    -0.1810 hn         1 NLG       0.160500
@<TRIPOS>BOND
     1     1     2 1   
     2     1     5 1   
     3     1    13 1   
     4     1    14 1   
     5     2     3 1   
     6     2     4 1   
     7     5     6 1   
     8     5    15 1   
     9     5    16 1   
    10     6     7 1   
    11     6    17 1   
    12     6    18 1   
    13     7     8 1   
    14     7     9 1   
    15    10    11 1   
    16    10    12 2   
    17    10    13 1   
    18    11    19 1   
    19    11    20 1   
    20    11    21 1   
    21    13    22 1   
@<TRIPOS>SUBSTRUCTURE
     1 NLG         1 TEMP              0 ****  ****    0 ROOT
