@<TRIPOS>MOLECULE
molecule
   54    55     1     0     0
SMALL
bcc


@<TRIPOS>ATOM
      1 C01          0.0000     0.0000     0.0000 c3         1 NLI      -0.046900
      2 C02          1.5080     0.0000     0.0000 cc         1 NLI      -0.081600
      3 C03          2.1740     0.0000     1.1740 cd         1 NLI       0.054600
      4 N04          3.5050     0.0010     1.2250 nd         1 NLI      -0.642300
      5 C05          4.2200     0.0010     0.1210 cc         1 NLI       0.617200
      6 N06          5.6070     0.0010     0.1810 nu         1 NLI      -0.846200
      7 C07          6.2840     0.0000     1.4800 c3         1 NLI       0.210800
      8 C08          7.8000     0.0010     1.2660 c3         1 NLI       0.443900
      9 F09          8.1680    -1.1410     0.5480 f          1 NLI      -0.230800
     10 F10          8.1680     1.1430     0.5470 f          1 NLI      -0.230800
     11 C11          8.4960     0.0000     2.6020 ca         1 NLI      -0.163300
     12 C12          8.8100     1.1980     3.2180 ca         1 NLI      -0.093000
     13 C13          9.4500     1.1980     4.4430 ca         1 NLI      -0.130000
     14 C14          9.7740     0.0000     5.0540 ca         1 NLI      -0.105000
     15 C15          9.4590    -1.1960     4.4390 ca         1 NLI      -0.130000
     16 C16          8.8150    -1.1960     3.2150 ca         1 NLI      -0.093000
     17 C17          3.5320     0.0000    -1.1750 c          1 NLI       0.568200
     18 O18          4.1640     0.0010    -2.2180 o          1 NLI      -0.650500
     19 N19          2.1800    -0.0050    -1.1860 n          1 NLI      -0.293000
     20 C20          1.4470    -0.0120    -2.4550 c3         1 NLI       0.027000
     21 C21          1.1960     1.4060    -2.8960 c          1 NLI       0.643100
     22 O22          1.5890     2.3320    -2.2190 o          1 NLI      -0.567100
     23 N23          0.5330     1.6470    -4.0460 ns         1 NLI      -0.602900
     24 C24          0.2890     3.0260    -4.4750 c3         1 NLI       0.134000
     25 C25         -0.4760     3.0190    -5.8000 c3         1 NLI       0.071400
     26 O26         -1.7710     2.4500    -5.6000 os         1 NLI      -0.087100
     27 N27         -2.5650     2.3970    -6.7720 nu         1 NLI      -0.678700
     28 C28         -3.8340     1.8730    -6.7180 c2         1 NLI       0.703100
     29 N29         -4.3080     1.4240    -5.5900 n2         1 NLI      -0.740100
     30 N30         -4.6050     1.8210    -7.8550 nz         1 NLI      -0.805600
     31 HN29        -5.2320     1.0420    -5.5510 hn         1 NLI       0.438400
     32 H01         -0.3610     0.8940    -0.4940 hc         1 NLI       0.049033
     33 H01A        -0.3610    -0.8750    -0.5270 hc         1 NLI       0.049033
     34 H4          -0.3610    -0.0190     1.0210 hc         1 NLI       0.049033
     35 H03          1.6110     0.0000     2.1000 h4         1 NLI       0.173000
     36 H6           6.1440     0.0090    -0.6640 hn         1 NLI       0.474800
     37 H07          5.9980     0.8840     2.0370 h1         1 NLI       0.078200
     38 H07A         5.9990    -0.8850     2.0360 h1         1 NLI       0.078200
     39 H12          8.5560     2.1360     2.7400 ha         1 NLI       0.144000
     40 H13          9.6960     2.1360     4.9260 ha         1 NLI       0.138000
     41 H14         10.2760     0.0000     6.0140 ha         1 NLI       0.137000
     42 H15          9.7110    -2.1350     4.9180 ha         1 NLI       0.138000
     43 H16          8.5680    -2.1340     2.7330 ha         1 NLI       0.144000
     44 H20          2.0330    -0.5270    -3.2070 h1         1 NLI       0.088700
     45 H20A         0.5010    -0.5220    -2.3220 h1         1 NLI       0.088700
     46 HN23         0.2500     0.8840    -4.6290 hn         1 NLI       0.314500
     47 H24          1.2360     3.5360    -4.6060 h1         1 NLI       0.086200
     48 H24A        -0.2970     3.5390    -3.7220 h1         1 NLI       0.086200
     49 H25         -0.5790     4.0350    -6.1620 h1         1 NLI       0.055700
     50 H25A         0.0690     2.4300    -6.5280 h1         1 NLI       0.055700
     51 HN27        -2.2200     2.7870    -7.6270 hn         1 NLI       0.465800
     52 HN30        -5.5730     1.8200    -7.6020 hn         1 NLI       0.469467
     53 HN3A        -4.4110     2.6190    -8.4270 hn         1 NLI       0.469467
     54 H303        -4.3930     0.9860    -8.3650 hn         1 NLI       0.469467
@<TRIPOS>BOND
     1     1     2 1
     2     2    19 1
     3     2     3 2
     4     3     4 1
     5     4     5 2
     6     5     6 1
     7     6     7 1
     8     7     8 1
     9     8    10 1
    10     8     9 1
    11    11     8 1
    12    11    16 ar
    13    12    11 ar
    14    13    12 ar
    15    13    14 ar
    16    14    15 ar
    17    15    16 ar
    18    17     5 1
    19    17    18 2
    20    19    17 1
    21    20    19 1
    22    21    20 1
    23    21    23 1
    24    22    21 2
    25    24    23 1
    26    24    25 1
    27    25    26 1
    28    26    27 1
    29    27    28 1
    30    28    29 2
    31    28    30 1
    32    29    31 1
    33     1    32 1
    34     1    33 1
    35     1    34 1
    36     3    35 1
    37     6    36 1
    38     7    37 1
    39     7    38 1
    40    12    39 1
    41    13    40 1
    42    14    41 1
    43    15    42 1
    44    16    43 1
    45    20    44 1
    46    20    45 1
    47    23    46 1
    48    24    47 1
    49    24    48 1
    50    25    49 1
    51    25    50 1
    52    27    51 1
    53    30    52 1
    54    30    53 1
    55    54    30 1
@<TRIPOS>SUBSTRUCTURE
     1 NLI         1 TEMP              0 ****  ****    0 ROOT
