@<TRIPOS>MOLECULE
NLI
   54    55     1     0     0
SMALL
bcc


@<TRIPOS>ATOM
      1 C01          0.0000     0.0000     0.0000 c3         1 NLI       0.077100
      2 C02          1.5080     0.0000     0.0000 cc         1 NLI      -0.271600
      3 C03          2.1740     0.0000     1.1740 cd         1 NLI       0.069600
      4 N04          3.5050     0.0010     1.2250 nd         1 NLI      -0.554300
      5 C05          4.2200     0.0010     0.1210 cc         1 NLI       0.419200
      6 N06          5.6070     0.0010     0.1810 nu         1 NLI      -0.409200
      7 C07          6.2840     0.0000     1.4800 c3         1 NLI       0.115800
      8 C08          7.8000     0.0010     1.2660 c3         1 NLI       0.431900
      9 F09          8.1680    -1.1410     0.5480 f          1 NLI      -0.216800
     10 F10          8.1680     1.1430     0.5470 f          1 NLI      -0.216800
     11 C11          8.4960     0.0000     2.6020 ca         1 NLI      -0.182300
     12 C12          8.8100     1.1980     3.2180 ca         1 NLI      -0.060000
     13 C13          9.4500     1.1980     4.4430 ca         1 NLI      -0.101000
     14 C14          9.7740     0.0000     5.0540 ca         1 NLI      -0.074000
     15 C15          9.4590    -1.1960     4.4390 ca         1 NLI      -0.101000
     16 C16          8.8150    -1.1960     3.2150 ca         1 NLI      -0.060000
     17 C17          3.5320     0.0000    -1.1750 c          1 NLI       0.477200
     18 O18          4.1640     0.0010    -2.2180 o          1 NLI      -0.704500
     19 N19          2.1800    -0.0050    -1.1860 n          1 NLI       0.161000
     20 C20          1.4470    -0.0120    -2.4550 c3         1 NLI      -0.060000
     21 C21          1.1960     1.4060    -2.8960 c          1 NLI       0.565100
     22 O22          1.5890     2.3320    -2.2190 o          1 NLI      -0.606100
     23 N23          0.5330     1.6470    -4.0460 ns         1 NLI      -0.221900
     24 C24          0.2890     3.0260    -4.4750 c3         1 NLI       0.065000
     25 C25         -0.4760     3.0190    -5.8000 c3         1 NLI       0.195400
     26 O26         -1.7710     2.4500    -5.6000 os         1 NLI      -0.235100
     27 N27         -2.5650     2.3970    -6.7720 nu         1 NLI      -0.279700
     28 C28         -3.8340     1.8730    -6.7180 c2         1 NLI       0.238100
     29 N29         -4.3080     1.4240    -5.5900 n2         1 NLI      -0.589100
     30 N30         -4.6050     1.8210    -7.8550 nz         1 NLI       0.201400
     31 HN29        -3.7490     1.4610    -4.7610 hn         1 NLI       0.391400
     32 H01         -0.3610    -0.8670    -0.5410 hc         1 NLI       0.010033
     33 H01A        -0.3610     0.9010    -0.4800 hc         1 NLI       0.010033
     34 H4          -0.3610    -0.0350     1.0210 hc         1 NLI       0.010033
     35 H03          1.6110     0.0000     2.1000 h4         1 NLI       0.130000
     36 H6           6.1440     0.0030    -0.6640 hn         1 NLI       0.320800
     37 H07          5.9990    -0.8850     2.0360 h1         1 NLI       0.053200
     38 H07A         5.9980     0.8840     2.0370 h1         1 NLI       0.053200
     39 H12          8.5560     2.1360     2.7400 ha         1 NLI       0.115500
     40 H13          9.6960     2.1360     4.9260 ha         1 NLI       0.110000
     41 H14         10.2760     0.0000     6.0140 ha         1 NLI       0.107000
     42 H15          9.7110    -2.1350     4.9180 ha         1 NLI       0.110000
     43 H16          8.5680    -2.1340     2.7330 ha         1 NLI       0.115500
     44 H20          0.5010    -0.5220    -2.3220 h1         1 NLI       0.057700
     45 H20A         2.0330    -0.5270    -3.2070 h1         1 NLI       0.057700
     46 HN23         0.2480     0.8840    -4.6270 hn         1 NLI       0.173500
     47 H24         -0.2970     3.5390    -3.7220 h1         1 NLI       0.050700
     48 H24A         1.2360     3.5360    -4.6060 h1         1 NLI       0.050700
     49 H25         -0.5790     4.0350    -6.1620 h1         1 NLI       0.016200
     50 H25A         0.0690     2.4300    -6.5290 h1         1 NLI       0.016200
     51 HN27        -2.2150     2.7740    -7.6300 hn         1 NLI       0.294800
     52 HN30        -5.4850     1.3950    -7.6430 hn         1 NLI       0.223133
     53 HN3A        -4.1340     1.2810    -8.5540 hn         1 NLI       0.223133
     54 H303        -4.7580     2.7490    -8.1980 hn         1 NLI       0.223133
@<TRIPOS>BOND
     1     1     2 1   
     2     1    32 1   
     3     1    33 1   
     4     1    34 1   
     5     2     3 2   
     6     2    19 1   
     7     3     4 1   
     8     3    35 1   
     9     4     5 2   
    10     5     6 1   
    11     5    17 1   
    12     6     7 1   
    13     6    36 1   
    14     7     8 1   
    15     7    37 1   
    16     7    38 1   
    17     8     9 1   
    18     8    10 1   
    19     8    11 1   
    20    11    12 ar  
    21    11    16 ar  
    22    12    13 ar  
    23    12    39 1   
    24    13    14 ar  
    25    13    40 1   
    26    14    15 ar  
    27    14    41 1   
    28    15    16 ar  
    29    15    42 1   
    30    16    43 1   
    31    17    18 2   
    32    17    19 1   
    33    19    20 1   
    34    20    21 1   
    35    20    44 1   
    36    20    45 1   
    37    21    22 2   
    38    21    23 1   
    39    23    24 1   
    40    23    46 1   
    41    24    25 1   
    42    24    47 1   
    43    24    48 1   
    44    25    26 1   
    45    25    49 1   
    46    25    50 1   
    47    26    27 1   
    48    27    28 1   
    49    27    51 1   
    50    28    29 2   
    51    28    30 1   
    52    29    31 1   
    53    30    52 1   
    54    30    53 1   
    55    30    54 1   
@<TRIPOS>SUBSTRUCTURE
     1 NLI         1 TEMP              0 ****  ****    0 ROOT
