@<TRIPOS>MOLECULE
molecule
   58    58     1     0     0
SMALL
bcc


@<TRIPOS>ATOM
      1 N            0.0000     0.0000     0.0000 ns         1 NLT      -0.549900
      2 C1          -0.6740     0.4920    -1.0570 c          1 NLT       0.665100
      3 OL          -0.0680     0.9360    -2.0090 o          1 NLT      -0.621100
      4 C2          -2.1810     0.4920    -1.0570 c3         1 NLT      -0.160400
      5 C3          -2.6920     1.1020    -2.3640 c3         1 NLT      -0.064400
      6 C4          -4.2220     1.1010    -2.3640 c3         1 NLT      -0.086400
      7 C5          -4.7320     1.7110    -3.6720 c3         1 NLT      -0.080400
      8 C6          -6.2610     1.7100    -3.6720 c3         1 NLT      -0.082400
      9 C7          -6.7720     2.3200    -4.9780 c3         1 NLT      -0.082400
     10 C8          -8.3020     2.3190    -4.9790 c3         1 NLT      -0.082400
     11 C9          -8.8120     2.9290    -6.2860 c3         1 NLT      -0.082400
     12 C10        -10.3430     2.9280    -6.2860 c3         1 NLT      -0.082400
     13 C11        -10.8530     3.5370    -7.5940 c3         1 NLT      -0.084400
     14 C12        -12.3820     3.5370    -7.5930 c3         1 NLT      -0.092100
     15 CA           1.4650     0.0000     0.0000 c3         1 NLT       0.012700
     16 CB           1.9750     0.0000     1.4430 c3         1 NLT      -0.039100
     17 CG           1.5760     1.2880     2.1170 ca         1 NLT      -0.061300
     18 CD2          2.4200     2.3820     2.0680 ca         1 NLT      -0.117500
     19 CE2          2.0530     3.5650     2.6800 ca         1 NLT      -0.154500
     20 CZ           0.8430     3.6510     3.3530 ca         1 NLT       0.073100
     21 CE1          0.0020     2.5500     3.4060 ca         1 NLT      -0.154500
     22 CD1          0.3700     1.3700     2.7870 ca         1 NLT      -0.117500
     23 OH           0.4830     4.8120     3.9610 oh         1 NLT      -0.530100
     24 C            1.9680    -1.2300    -0.7100 c          1 NLT       0.885600
     25 O            3.2870    -1.4430    -0.8330 o          1 NLT      -0.837800
     26 O2           1.1830    -2.0260    -1.1690 o          1 NLT      -0.837800
     27 HN          -0.5000    -0.4050     0.7670 hn         1 NLT       0.293500
     28 H21         -2.5420     1.0780    -0.2210 hc         1 NLT       0.047700
     29 H22         -2.5420    -0.5250    -0.9680 hc         1 NLT       0.047700
     30 H31         -2.3300     0.5160    -3.2010 hc         1 NLT       0.058200
     31 H32         -2.3310     2.1190    -2.4530 hc         1 NLT       0.058200
     32 H41         -4.5830     1.6860    -1.5280 hc         1 NLT       0.034200
     33 H42         -4.5830     0.0830    -2.2760 hc         1 NLT       0.034200
     34 H51         -4.3710     2.7290    -3.7610 hc         1 NLT       0.043200
     35 H52         -4.3710     1.1250    -4.5090 hc         1 NLT       0.043200
     36 H61         -6.6220     0.6930    -3.5830 hc         1 NLT       0.037700
     37 H62         -6.6220     2.2960    -2.8350 hc         1 NLT       0.037700
     38 H71         -6.4100     1.7340    -5.8150 hc         1 NLT       0.041200
     39 H72         -6.4110     3.3370    -5.0670 hc         1 NLT       0.041200
     40 H81         -8.6640     2.9050    -4.1420 hc         1 NLT       0.039200
     41 H82         -8.6630     1.3020    -4.8900 hc         1 NLT       0.039200
     42 H91         -8.4520     3.9470    -6.3750 hc         1 NLT       0.040700
     43 H92         -8.4510     2.3440    -7.1230 hc         1 NLT       0.040700
     44 H101       -10.7040     3.5140    -5.4500 hc         1 NLT       0.039700
     45 H102       -10.7030     1.9100    -6.1970 hc         1 NLT       0.039700
     46 H111       -10.4920     2.9510    -8.4300 hc         1 NLT       0.039700
     47 H112       -10.4910     4.5540    -7.6840 hc         1 NLT       0.039700
     48 H121       -12.7440     3.9750    -8.5160 hc         1 NLT       0.030367
     49 H122       -12.7440     2.5190    -7.5110 hc         1 NLT       0.030367
     50 H123       -12.7430     4.1170    -6.7520 hc         1 NLT       0.030367
     51 HA           1.8270     0.8840    -0.5110 h1         1 NLT       0.078700
     52 HB1          1.5430    -0.8370     1.9790 hc         1 NLT       0.064200
     53 HB2          3.0550    -0.0890     1.4450 hc         1 NLT       0.064200
     54 HD2          3.3640     2.3150     1.5420 ha         1 NLT       0.135000
     55 HE2          2.7130     4.4230     2.6400 ha         1 NLT       0.126000
     56 HE1         -0.9430     2.6140     3.9310 ha         1 NLT       0.126000
     57 HD1         -0.2870     0.5100     2.8280 ha         1 NLT       0.135000
     58 HOH          0.8260     4.8270     4.8400 ho         1 NLT       0.404000
@<TRIPOS>BOND
     1     1     2 1
     2     1    15 1
     3     1    27 1
     4     2     3 2
     5     2     4 1
     6     4     5 1
     7     4    28 1
     8     4    29 1
     9     5     6 1
    10     5    30 1
    11     5    31 1
    12     6     7 1
    13     6    32 1
    14     6    33 1
    15     7     8 1
    16     7    34 1
    17     7    35 1
    18     8     9 1
    19     8    36 1
    20     8    37 1
    21     9    10 1
    22     9    38 1
    23     9    39 1
    24    10    11 1
    25    10    40 1
    26    10    41 1
    27    11    12 1
    28    11    42 1
    29    11    43 1
    30    12    13 1
    31    12    44 1
    32    12    45 1
    33    13    14 1
    34    13    46 1
    35    13    47 1
    36    14    48 1
    37    14    49 1
    38    14    50 1
    39    15    16 1
    40    15    24 1
    41    15    51 1
    42    16    17 1
    43    16    52 1
    44    16    53 1
    45    17    18 ar
    46    17    22 ar
    47    18    19 ar
    48    18    54 1
    49    19    20 ar
    50    19    55 1
    51    20    21 ar
    52    20    23 1
    53    21    22 ar
    54    21    56 1
    55    22    57 1
    56    23    58 1
    57    24    25 1
    58    24    26 1
@<TRIPOS>SUBSTRUCTURE
     1 NLT         1 TEMP              0 ****  ****    0 ROOT
