@<TRIPOS>MOLECULE
molecule
   49    53     1     0     0
SMALL
bcc


@<TRIPOS>ATOM
      1 O1           0.0000     0.0000     0.0000 oh         1 NLX      -0.477100
      2 O2           2.7180     0.0000     1.3140 os         1 NLX      -0.254900
      3 O3           3.3130    -2.4650     2.1940 o          1 NLX      -0.445100
      4 O4           7.0270    -0.6200     0.3480 oh         1 NLX      -0.612800
      5 N1           6.5790     1.2970    -1.6770 n4         1 NLX      -0.557800
      6 C1           2.4060    -0.0880    -2.7900 ca         1 NLX      -0.114000
      7 C2           1.2250    -0.0530    -2.0660 ca         1 NLX      -0.133000
      8 C3           1.1810    -0.0180    -0.6730 ca         1 NLX       0.136100
      9 C4           2.4080     0.0000     0.0000 ca         1 NLX       0.128100
     10 C5           4.1140    -0.3990     1.4670 c3         1 NLX       0.076100
     11 C6           4.1460    -1.8980     1.5280 c          1 NLX       0.535100
     12 C7           5.1640    -2.7240     0.8000 c3         1 NLX      -0.171400
     13 C8           5.4090    -2.1470    -0.5950 c3         1 NLX      -0.105400
     14 C9           6.1290    -0.0910    -1.8350 c3         1 NLX       0.117500
     15 C10          4.9580    -0.1580    -2.8020 c3         1 NLX      -0.038100
     16 C11          3.6250    -0.0580    -2.1360 ca         1 NLX      -0.087300
     17 C12          3.5650     0.0310    -0.7640 ca         1 NLX      -0.204300
     18 C13          4.7360     0.1290     0.1820 c3         1 NLX      -0.041700
     19 C14          5.8460    -0.6900    -0.4550 c3         1 NLX       0.158800
     20 C15          5.1710     1.5870     0.3150 c3         1 NLX      -0.079400
     21 C16          5.5220     2.1200    -1.0790 c3         1 NLX       0.109800
     22 C17          7.7630     1.3250    -0.8080 c3         1 NLX       0.133000
     23 C18          8.3400     2.7170    -0.7880 c2         1 NLX      -0.268200
     24 C19          8.5210     3.3350     0.3530 c2         1 NLX      -0.123000
     25 C20          6.9330     1.8450    -2.9930 c3         1 NLX       0.080100
     26 HO11        -0.5050     0.7490    -0.2700 ho         1 NLX       0.433000
     27 H11          2.3750    -0.1150    -3.8730 ha         1 NLX       0.149000
     28 H21          0.2890    -0.0540    -2.6100 ha         1 NLX       0.160000
     29 H51          4.5630     0.0500     2.3450 h1         1 NLX       0.127700
     30 H71          6.0930    -2.7180     1.3580 hc         1 NLX       0.089700
     31 H72          4.8000    -3.7400     0.7080 hc         1 NLX       0.089700
     32 H81          4.4950    -2.1970    -1.1740 hc         1 NLX       0.077200
     33 H82          6.1890    -2.7140    -1.0890 hc         1 NLX       0.077200
     34 H91          6.9450    -0.6530    -2.2730 hx         1 NLX       0.095700
     35 H101         5.0500     0.6550    -3.5120 hc         1 NLX       0.081700
     36 H102         5.0060    -1.0990    -3.3360 hc         1 NLX       0.081700
     37 H151         6.0410     1.6500     0.9580 hc         1 NLX       0.090200
     38 H152         4.3600     2.1710     0.7330 hc         1 NLX       0.090200
     39 H161         4.6410     2.0840    -1.7090 hx         1 NLX       0.105200
     40 H162         5.8690     3.1420    -0.9950 hx         1 NLX       0.105200
     41 H171         8.5050     0.6320    -1.1860 hx         1 NLX       0.122700
     42 H172         7.4800     1.0370     0.1970 hx         1 NLX       0.122700
     43 H181         8.6060     3.2060    -1.7170 ha         1 NLX       0.144000
     44 H191         8.9350     4.3360     0.3670 ha         1 NLX       0.138500
     45 H192         8.2550     2.8450     1.2820 ha         1 NLX       0.138500
     46 H201         7.3260     1.0530    -3.6200 hx         1 NLX       0.097033
     47 H202         7.6850     2.6160    -2.8720 hx         1 NLX       0.097033
     48 H203         6.0510     2.2690    -3.4560 hx         1 NLX       0.097033
     49 HO41         7.4820    -1.4450     0.3110 ho         1 NLX       0.430000
@<TRIPOS>BOND
     1     1     8 1
     2     1    26 1
     3     2     9 1
     4     2    10 1
     5     3    11 2
     6     4    19 1
     7     4    49 1
     8     5    14 1
     9     5    21 1
    10     5    22 1
    11     5    25 1
    12     6     7 ar
    13     6    16 ar
    14     6    27 1
    15     7     8 ar
    16     7    28 1
    17     8     9 ar
    18     9    17 ar
    19    10    11 1
    20    10    18 1
    21    10    29 1
    22    11    12 1
    23    12    13 1
    24    12    30 1
    25    12    31 1
    26    13    19 1
    27    13    32 1
    28    13    33 1
    29    14    15 1
    30    14    19 1
    31    14    34 1
    32    15    16 1
    33    15    35 1
    34    15    36 1
    35    16    17 ar
    36    17    18 1
    37    18    19 1
    38    18    20 1
    39    20    21 1
    40    20    37 1
    41    20    38 1
    42    21    39 1
    43    21    40 1
    44    22    23 1
    45    22    41 1
    46    22    42 1
    47    23    24 2
    48    23    43 1
    49    24    44 1
    50    24    45 1
    51    25    46 1
    52    25    47 1
    53    25    48 1
@<TRIPOS>SUBSTRUCTURE
     1 NLX         1 TEMP              0 ****  ****    0 ROOT
