@<TRIPOS>MOLECULE
NM1
   82    86     1     0     0
SMALL
bcc


@<TRIPOS>ATOM
      1 N01          0.0000     0.0000     0.0000 n3         1 NM1      -0.499500
      2 S02          1.6700     0.0000     0.0000 s6         1 NM1       1.132800
      3 N03          2.1510     0.0000     1.6030 n3         1 NM1      -0.497500
      4 C04          1.4190     0.7880     2.5690 c3         1 NM1       0.197500
      5 C05          0.2460     0.0000     3.1490 c3         1 NM1       0.123100
      6 C06         -0.9370    -0.0260     2.2670 c3         1 NM1       0.127100
      7 C07         -0.7120    -0.8020     0.9700 c3         1 NM1       0.195500
      8 C08         -0.7380     0.8000    -0.9800 c3         1 NM1       0.289100
      9 C09         -1.1400     2.1120    -0.3560 ca         1 NM1      -0.112300
     10 C10         -2.4550     2.3320    -0.0040 ca         1 NM1      -0.012000
     11 C11         -2.8270     3.5490     0.5690 ca         1 NM1      -0.180600
     12 C12         -1.8610     4.5330     0.7910 ca         1 NM1      -0.093000
     13 C13         -0.5480     4.2970     0.4390 ca         1 NM1      -0.114000
     14 C14         -0.1870     3.0900    -0.1330 ca         1 NM1      -0.077000
     15 O15          2.0650    -1.2600    -0.5230 o          1 NM1      -0.579800
     16 C17          4.2610     2.2580     4.2210 ca         1 NM1       0.130100
     17 C18          5.4220     2.9870     4.0080 ca         1 NM1      -0.183000
     18 C19          6.2330     3.3190     5.0760 ca         1 NM1      -0.057000
     19 C20          5.8880     2.9270     6.3550 ca         1 NM1      -0.142000
     20 C21          4.7310     2.2000     6.5700 ca         1 NM1      -0.057000
     21 C22          3.9140     1.8700     5.5060 ca         1 NM1      -0.183000
     22 C23          3.3060    -0.7970     2.0250 c3         1 NM1       0.288100
     23 C24          2.8310    -2.1150     2.5800 ca         1 NM1      -0.100300
     24 C25          2.3770    -3.1020     1.7260 ca         1 NM1      -0.090500
     25 C26          1.9420    -4.3110     2.2350 ca         1 NM1      -0.114000
     26 C27          1.9590    -4.5320     3.5990 ca         1 NM1      -0.107000
     27 C28          2.4140    -3.5450     4.4540 ca         1 NM1      -0.114000
     28 C29          2.8530    -2.3380     3.9440 ca         1 NM1      -0.090500
     29 O30          0.6720    -1.3430     3.3830 oh         1 NM1      -0.560800
     30 O31         -1.2910     1.3180     1.9390 oh         1 NM1      -0.566800
     31 C32         -2.0670    -1.2090     0.3880 c3         1 NM1       0.146400
     32 O33         -1.8640    -1.9670    -0.8050 os         1 NM1      -0.268900
     33 C34         -3.0960    -2.3000    -1.2740 ca         1 NM1       0.126100
     34 C35         -3.2190    -3.0470    -2.4370 ca         1 NM1      -0.181000
     35 C36         -4.4720    -3.3820    -2.9120 ca         1 NM1      -0.056500
     36 C37         -5.6030    -2.9730    -2.2300 ca         1 NM1      -0.142000
     37 C38         -5.4830    -2.2280    -1.0710 ca         1 NM1      -0.056500
     38 C39         -4.2320    -1.8950    -0.5890 ca         1 NM1      -0.181000
     39 O40          2.0520     1.2660    -0.5190 o          1 NM1      -0.579800
     40 C41          2.3620     1.1910     3.7050 c3         1 NM1       0.147400
     41 C51         -4.2360     3.7950     0.9430 c          1 NM1       0.598700
     42 O52         -5.0740     2.9370     0.7480 o          1 NM1      -0.658100
     43 N53         -4.5890     4.9700     1.5010 ns         1 NM1      -0.203900
     44 C54         -5.9860     5.2130     1.8710 c3         1 NM1       0.088300
     45 H04          1.0410     1.6790     2.0830 h1         1 NM1       0.067700
     46 H05         -0.0380     0.4490     4.0930 h1         1 NM1       0.005700
     47 H06         -1.7580    -0.4840     2.8040 h1         1 NM1       0.009700
     48 H07         -0.1320    -1.6910     1.1870 h1         1 NM1       0.070700
     49 H081        -0.1080     0.9880    -1.8410 h1         1 NM1       0.035700
     50 H082        -1.6250     0.2620    -1.2920 h1         1 NM1       0.035700
     51 H10         -3.2000     1.5650    -0.1780 ha         1 NM1       0.124000
     52 H12         -2.1420     5.4790     1.2370 ha         1 NM1       0.096000
     53 H13          0.2020     5.0600     0.6110 ha         1 NM1       0.106000
     54 H14          0.8450     2.9100    -0.4080 ha         1 NM1       0.160000
     55 H18          5.6930     3.2950     3.0060 ha         1 NM1       0.123500
     56 H19          7.1390     3.8880     4.9100 ha         1 NM1       0.101500
     57 H20          6.5260     3.1870     7.1910 ha         1 NM1       0.105000
     58 H21          4.4620     1.8960     7.5740 ha         1 NM1       0.101500
     59 H22          3.0080     1.3010     5.6750 ha         1 NM1       0.123500
     60 H231         3.9520    -0.9750     1.1740 h1         1 NM1       0.033700
     61 H232         3.8550    -0.2600     2.7890 h1         1 NM1       0.033700
     62 H25          2.3640    -2.9280     0.6570 ha         1 NM1       0.127500
     63 H26          1.5860    -5.0840     1.5650 ha         1 NM1       0.100000
     64 H27          1.6160    -5.4790     3.9990 ha         1 NM1       0.098000
     65 H28          2.4300    -3.7190     5.5230 ha         1 NM1       0.100000
     66 H29          3.2090    -1.5650     4.6140 ha         1 NM1       0.127500
     67 HO3          0.1420    -1.7270     4.0620 ho         1 NM1       0.388000
     68 HO1         -1.7550     1.7060     2.6620 ho         1 NM1       0.388000
     69 H321        -2.6430    -0.3210     0.1580 h1         1 NM1       0.029200
     70 H322        -2.6040    -1.8100     1.1120 h1         1 NM1       0.029200
     71 H35         -2.3330    -3.3670    -2.9710 ha         1 NM1       0.125000
     72 H36         -4.5690    -3.9650    -3.8190 ha         1 NM1       0.102500
     73 H37         -6.5850    -3.2350    -2.6050 ha         1 NM1       0.105000
     74 H38         -6.3710    -1.9110    -0.5370 ha         1 NM1       0.102500
     75 H39         -4.1380    -1.3120     0.3190 ha         1 NM1       0.125000
     76 H411         1.8270     1.8060     4.4180 h1         1 NM1       0.026200
     77 H412         2.7310     0.3010     4.2010 h1         1 NM1       0.026200
     78 H53         -3.9070     5.6930     1.6200 hn         1 NM1       0.177500
     79 H541        -6.6100     5.1470     0.9890 h1         1 NM1       0.008700
     80 H542        -6.0780     6.2010     2.3060 h1         1 NM1       0.008700
     81 H543        -6.3020     4.4700     2.5940 h1         1 NM1       0.008700
     82 O16          3.4620     1.9290     3.1720 os         1 NM1      -0.265900
@<TRIPOS>BOND
     1     1     2 1   
     2     1     7 1   
     3     1     8 1   
     4     2     3 1   
     5     2    15 2   
     6     2    39 2   
     7     3     4 1   
     8     3    22 1   
     9     4     5 1   
    10     4    40 1   
    11     4    45 1   
    12     5     6 1   
    13     5    29 1   
    14     5    46 1   
    15     6     7 1   
    16     6    30 1   
    17     6    47 1   
    18     7    31 1   
    19     7    48 1   
    20     8     9 1   
    21     8    49 1   
    22     8    50 1   
    23     9    10 ar  
    24     9    14 ar  
    25    10    11 ar  
    26    10    51 1   
    27    11    12 ar  
    28    11    41 1   
    29    12    13 ar  
    30    12    52 1   
    31    13    14 ar  
    32    13    53 1   
    33    14    54 1   
    34    16    17 ar  
    35    16    21 ar  
    36    16    82 1   
    37    17    18 ar  
    38    17    55 1   
    39    18    19 ar  
    40    18    56 1   
    41    19    20 ar  
    42    19    57 1   
    43    20    21 ar  
    44    20    58 1   
    45    21    59 1   
    46    22    23 1   
    47    22    60 1   
    48    22    61 1   
    49    23    24 ar  
    50    23    28 ar  
    51    24    25 ar  
    52    24    62 1   
    53    25    26 ar  
    54    25    63 1   
    55    26    27 ar  
    56    26    64 1   
    57    27    28 ar  
    58    27    65 1   
    59    28    66 1   
    60    29    67 1   
    61    30    68 1   
    62    31    32 1   
    63    31    69 1   
    64    31    70 1   
    65    32    33 1   
    66    33    34 ar  
    67    33    38 ar  
    68    34    35 ar  
    69    34    71 1   
    70    35    36 ar  
    71    35    72 1   
    72    36    37 ar  
    73    36    73 1   
    74    37    38 ar  
    75    37    74 1   
    76    38    75 1   
    77    40    76 1   
    78    40    77 1   
    79    40    82 1   
    80    41    42 2   
    81    41    43 1   
    82    43    44 1   
    83    43    78 1   
    84    44    79 1   
    85    44    80 1   
    86    44    81 1   
@<TRIPOS>SUBSTRUCTURE
     1 NM1         1 TEMP              0 ****  ****    0 ROOT
