@<TRIPOS>MOLECULE
molecule
   25    24     1     0     0
SMALL
bcc


@<TRIPOS>ATOM
      1 N1           0.0000     0.0000     0.0000 n4         1 NM2      -0.574800
      2 C8           1.4690     0.0000     0.0000 c3         1 NM2       0.096100
      3 O4          -0.3110     2.6910     5.5450 o          1 NM2      -0.824300
      4 C5           0.0130     2.4790     4.2600 c          1 NM2       0.891600
      5 O7           0.7080     3.2740     3.6730 o          1 NM2      -0.824300
      6 C6          -0.4890     1.2480     3.5490 c3         1 NM2      -0.184400
      7 C2          -0.4890     0.0000     1.3850 c3         1 NM2       0.087800
      8 C9          -0.4890     1.2000    -0.6920 c3         1 NM2       0.096100
      9 C10         -0.4890    -1.1990    -0.6930 c3         1 NM2       0.096100
     10 C3           0.0210     1.2490     2.1070 c3         1 NM2      -0.088400
     11 H21C        -0.1280    -0.8850     1.8960 hx         1 NM2       0.089700
     12 H22C        -1.5720    -0.0000     1.3860 hx         1 NM2       0.089700
     13 H81C         1.8300     1.0040     0.1850 hx         1 NM2       0.092811
     14 H82C         1.8300    -0.6620     0.7770 hx         1 NM2       0.092811
     15 H83C         1.8300    -0.3420    -0.9620 hx         1 NM2       0.092811
     16 H91C        -1.5170     1.3890    -0.4060 hx         1 NM2       0.092811
     17 H92C        -0.4360     1.0460    -1.7630 hx         1 NM2       0.092811
     18 H93C         0.1240     2.0500    -0.4190 hx         1 NM2       0.092811
     19 H101        -0.1280    -1.1980    -1.7140 hx         1 NM2       0.092811
     20 H102        -0.1280    -2.0830    -0.1820 hx         1 NM2       0.092811
     21 H103        -1.5720    -1.1990    -0.6930 hx         1 NM2       0.092811
     22 H31C         1.1040     1.2500     2.1070 hc         1 NM2       0.064700
     23 H32C        -0.3410     2.1340     1.5970 hc         1 NM2       0.064700
     24 H61C        -1.5720     1.2480     3.5490 hc         1 NM2       0.041700
     25 H62C        -0.1270     0.3640     4.0590 hc         1 NM2       0.041700
@<TRIPOS>BOND
     1     1     7 1
     2     1     2 1
     3     1     8 1
     4     1     9 1
     5     7    10 1
     6     3     4 1
     7     4     5 1
     8     4     6 1
     9     6    10 1
    10     7    11 1
    11     7    12 1
    12     2    13 1
    13     2    14 1
    14     2    15 1
    15     8    16 1
    16     8    17 1
    17     8    18 1
    18     9    19 1
    19     9    20 1
    20     9    21 1
    21    10    22 1
    22    10    23 1
    23     6    24 1
    24     6    25 1
@<TRIPOS>SUBSTRUCTURE
     1 NM2         1 TEMP              0 ****  ****    0 ROOT
