@<TRIPOS>MOLECULE
NM2
   25    24     1     0     0
SMALL
bcc


@<TRIPOS>ATOM
      1 N1           0.0000     0.0000     0.0000 n4         1 NM2       0.051200
      2 C8           1.4690     0.0000     0.0000 c3         1 NM2       0.015100
      3 O4          -0.3110     2.6910     5.5450 o          1 NM2      -0.874300
      4 C5           0.0130     2.4790     4.2600 c          1 NM2       0.975600
      5 O7           0.7080     3.2740     3.6730 o          1 NM2      -0.874300
      6 C6          -0.4890     1.2480     3.5490 c3         1 NM2      -0.129400
      7 C2          -0.4890     0.0000     1.3850 c3         1 NM2      -0.031200
      8 C9          -0.4890     1.2000    -0.6920 c3         1 NM2       0.015100
      9 C10         -0.4890    -1.1990    -0.6930 c3         1 NM2       0.015100
     10 C3           0.0210     1.2490     2.1070 c3         1 NM2      -0.037400
     11 H21C        -0.1280    -0.8850     1.8960 hx         1 NM2       0.070200
     12 H22C        -1.5720    -0.0000     1.3860 hx         1 NM2       0.070200
     13 H81C         1.8300     1.0040     0.1850 hx         1 NM2       0.068811
     14 H82C         1.8300    -0.6620     0.7770 hx         1 NM2       0.068811
     15 H83C         1.8300    -0.3420    -0.9620 hx         1 NM2       0.068811
     16 H91C        -1.5170     1.3890    -0.4060 hx         1 NM2       0.068811
     17 H92C        -0.4360     1.0460    -1.7630 hx         1 NM2       0.068811
     18 H93C         0.1240     2.0500    -0.4190 hx         1 NM2       0.068811
     19 H101        -0.1280    -1.1980    -1.7140 hx         1 NM2       0.068811
     20 H102        -0.1280    -2.0830    -0.1820 hx         1 NM2       0.068811
     21 H103        -1.5720    -1.1990    -0.6930 hx         1 NM2       0.068811
     22 H31C         1.1040     1.2500     2.1070 hc         1 NM2       0.041700
     23 H32C        -0.3410     2.1340     1.5970 hc         1 NM2       0.041700
     24 H61C        -1.5720     1.2480     3.5490 hc         1 NM2       0.015700
     25 H62C        -0.1270     0.3640     4.0590 hc         1 NM2       0.015700
@<TRIPOS>BOND
     1     1     2 1   
     2     1     7 1   
     3     1     8 1   
     4     1     9 1   
     5     2    13 1   
     6     2    14 1   
     7     2    15 1   
     8     3     4 1   
     9     4     5 1   
    10     4     6 1   
    11     6    10 1   
    12     6    24 1   
    13     6    25 1   
    14     7    10 1   
    15     7    11 1   
    16     7    12 1   
    17     8    16 1   
    18     8    17 1   
    19     8    18 1   
    20     9    19 1   
    21     9    20 1   
    22     9    21 1   
    23    10    22 1   
    24    10    23 1   
@<TRIPOS>SUBSTRUCTURE
     1 NM2         1 TEMP              0 ****  ****    0 ROOT
