@<TRIPOS>MOLECULE
molecule
   28    27     1     0     0
SMALL
bcc


@<TRIPOS>ATOM
      1 N1           0.0000     0.0000     0.0000 n4         1 NM3      -0.572800
      2 C8           1.4690     0.0000     0.0000 c3         1 NM3       0.090100
      3 O4           0.7070     3.2760     3.6710 o          1 NM3      -0.825300
      4 C5           0.0120     2.4800     4.2590 c          1 NM3       0.890600
      5 O7          -0.3120     2.6930     5.5430 o          1 NM3      -0.825300
      6 C6          -0.4900     1.2490     3.5480 c3         1 NM3      -0.183400
      7 C2          -0.4890     0.0000     1.3850 c3         1 NM3       0.088800
      8 C9          -0.4890     1.2000    -0.6930 c3         1 NM3       0.090100
      9 C10         -0.4890    -1.2000    -0.6930 c3         1 NM3       0.102800
     10 C11          0.0210    -1.1990    -2.1350 c3         1 NM3      -0.125100
     11 C3           0.0210     1.2500     2.1050 c3         1 NM3      -0.088400
     12 H81C         1.8300     0.9210     0.4410 hx         1 NM3       0.096700
     13 H82C         1.8300    -0.8430     0.5770 hx         1 NM3       0.096700
     14 H83C         1.8300    -0.0790    -1.0180 hx         1 NM3       0.096700
     15 H21C        -1.5730    -0.0000     1.3850 hx         1 NM3       0.089700
     16 H22C        -0.1280    -0.8840     1.8960 hx         1 NM3       0.089700
     17 H91C        -1.5680     1.2500    -0.6100 hx         1 NM3       0.096700
     18 H92C        -0.0510     2.0820    -0.2420 hx         1 NM3       0.096700
     19 H93C        -0.2100     1.1520    -1.7390 hx         1 NM3       0.096700
     20 H101        -0.1280    -2.0840    -0.1820 hx         1 NM3       0.094700
     21 H102        -1.5730    -1.2010    -0.6930 hx         1 NM3       0.094700
     22 H111        -0.3270    -2.0910    -2.6420 hc         1 NM3       0.066033
     23 H112        -0.3530    -0.3230    -2.6500 hc         1 NM3       0.066033
     24 H113         1.1040    -1.1830    -2.1350 hc         1 NM3       0.066033
     25 H61C        -1.5730     1.2490     3.5480 hc         1 NM3       0.041700
     26 H62C        -0.1280     0.3650     4.0590 hc         1 NM3       0.041700
     27 H31C        -0.3410     2.1340     1.5950 hc         1 NM3       0.064700
     28 H32C         1.1040     1.2500     2.1050 hc         1 NM3       0.064700
@<TRIPOS>BOND
     1     1     2 1
     2     1     7 1
     3     1     8 1
     4     1     9 1
     5    10     9 1
     6     3     4 1
     7     4     5 1
     8     4     6 1
     9     6    11 1
    10     7    11 1
    11     2    12 1
    12     2    13 1
    13     2    14 1
    14     7    15 1
    15     7    16 1
    16     8    17 1
    17     8    18 1
    18     8    19 1
    19     9    20 1
    20     9    21 1
    21    10    22 1
    22    10    23 1
    23    10    24 1
    24     6    25 1
    25     6    26 1
    26    11    27 1
    27    11    28 1
@<TRIPOS>SUBSTRUCTURE
     1 NM3         1 TEMP              0 ****  ****    0 ROOT
