@<TRIPOS>MOLECULE
NM7
   31    32     1     0     0
SMALL
bcc


@<TRIPOS>ATOM
      1 NAA          0.0000     0.0000     0.0000 nz         1 NM7       0.230600
      2 NAB          4.4680    -0.0040    -4.7170 nz         1 NM7       0.210600
      3 OAC          1.9550     0.0000     1.0520 o          1 NM7      -0.476100
      4 OAD          2.4340    -0.0030    -3.8230 o          1 NM7      -0.513100
      5 CAF          8.6940     0.0070     1.7410 ca         1 NM7      -0.119000
      6 CAG          9.6040     0.0060    -0.4830 ca         1 NM7      -0.119000
      7 CAH          7.4150     0.0030     1.2230 ca         1 NM7      -0.034000
      8 CAI          8.3300     0.0070    -1.0110 ca         1 NM7      -0.034000
      9 CAJ          5.5620    -0.0030    -2.0270 cc         1 NM7      -0.172000
     10 NAK          2.0210    -0.0010    -1.1670 ns         1 NM7       0.084900
     11 SAL          4.3800    -0.0090     0.2340 ss         1 NM7       0.011200
     12 CAM          1.3480     0.0000     0.0000 c          1 NM7       0.263100
     13 CAO          9.7870     0.0110     0.8900 ca         1 NM7       0.183900
     14 CAP          7.2240     0.0030    -0.1590 ca         1 NM7      -0.109000
     15 CAQ          5.8560    -0.0020    -0.7190 cd         1 NM7       0.186900
     16 CAR          4.1910    -0.0020    -2.2950 cc         1 NM7      -0.267600
     17 CAS          3.4070    -0.0010    -1.1670 cd         1 NM7      -0.006500
     18 HNAA        -0.3340    -0.0030     0.9440 hn         1 NM7       0.253133
     19 HNAB        -0.3340     0.8190    -0.4690 hn         1 NM7       0.253133
     20 HNAC         5.0450     0.8130    -4.6910 hn         1 NM7       0.256467
     21 HNAD         5.0450    -0.8210    -4.6720 hn         1 NM7       0.256467
     22 HAF          8.8430     0.0070     2.8130 ha         1 NM7       0.142500
     23 HAG         10.4630     0.0090    -1.1440 ha         1 NM7       0.142500
     24 HAH          6.5610    -0.0000     1.8890 ha         1 NM7       0.104500
     25 HAI          8.1870     0.0050    -2.0850 ha         1 NM7       0.104500
     26 HAJ          6.3180     0.0010    -2.8030 ha         1 NM7       0.134000
     27 HNAK         1.5210     0.0050    -2.0340 hn         1 NM7       0.207500
     28 HAA3        -0.3340    -0.8160    -0.4740 hn         1 NM7       0.253133
     29 HAB3         3.9310    -0.0070    -5.5620 hn         1 NM7       0.256467
     30 CAN          3.6390    -0.0030    -3.6540 c          1 NM7       0.412700
     31 FAE         11.0380     0.0210     1.4010 f          1 NM7      -0.098900
@<TRIPOS>BOND
     1     1    12 1   
     2     1    18 1   
     3     1    19 1   
     4     1    28 1   
     5     2    20 1   
     6     2    21 1   
     7     2    29 1   
     8     2    30 1   
     9     3    12 2   
    10     4    30 2   
    11     5     7 ar  
    12     5    13 ar  
    13     5    22 1   
    14     6     8 ar  
    15     6    13 ar  
    16     6    23 1   
    17     7    14 ar  
    18     7    24 1   
    19     8    14 ar  
    20     8    25 1   
    21     9    15 2   
    22     9    16 1   
    23     9    26 1   
    24    10    12 1   
    25    10    17 1   
    26    10    27 1   
    27    11    15 1   
    28    11    17 1   
    29    13    31 1   
    30    14    15 1   
    31    16    17 2   
    32    16    30 1   
@<TRIPOS>SUBSTRUCTURE
     1 NM7         1 TEMP              0 ****  ****    0 ROOT
