@<TRIPOS>MOLECULE
NM8
   75    76     1     0     0
SMALL
bcc


@<TRIPOS>ATOM
      1 CAA         0.7140   -1.3040   -2.3000 c3        1 NM8     -0.258000
      2 CAB         2.1390   -1.6540   -2.0710 c2        1 NM8      0.018000
      3 CAC         2.7410   -1.3660   -0.8550 c2        1 NM8     -0.230000
      4 CAD         1.9200   -0.9860    0.2500 c1        1 NM8      0.089000
      5 CAE         0.7470   -0.1420   -0.0520 c3        1 NM8     -0.197000
      6 CAF         0.0860   -0.4030   -1.3410 c1        1 NM8     -0.003000
      7 CAG        -0.2540   -0.1700    1.0710 c2        1 NM8      0.065000
      8 CAH        -0.7140   -1.2710    1.6690 c2        1 NM8     -0.260000
      9 CAI        -2.8930    1.2520    2.1820 c1        1 NM8      0.004000
     10 CAJ        -1.4920    1.3020    2.4490 c2        1 NM8     -0.151000
     11 OAK        -0.6050    1.1450    1.3880 os        1 NM8     -0.154000
     12 CAL        -0.9950    1.6410    3.7010 c2        1 NM8      0.052000
     13 CAM        -1.9280    1.9420    4.7050 c2        1 NM8     -0.431000
     14 CAN        -3.3050    1.8830    4.3960 c2        1 NM8      0.116000
     15 NAO        -4.1560    2.1890    5.4280 n         1 NM8     -0.292000
     16 CAP        -3.4500    2.5110    6.6240 c2        1 NM8      0.155000
     17 SAQ        -1.7090    2.3950    6.3320 ss        1 NM8      0.429000
     18 OAR        -3.7570    1.5380    3.1360 os        1 NM8     -0.009000
     19 OAS        -4.0400    2.8140    7.6610 o         1 NM8     -0.248000
     20 CAT         2.9080   -2.2750   -3.1240 c2        1 NM8     -0.184000
     21 CAU         4.2410   -2.4970   -2.9770 c2        1 NM8     -0.029000
     22 CAV         4.9370   -2.0910   -1.7380 c3        1 NM8     -0.239000
     23 CAW         4.1520   -1.5120   -0.6540 c1        1 NM8      0.035000
     24 CAX         2.1740   -2.7030   -4.3300 c2        1 NM8      0.312000
     25 OAY         1.3530   -3.6020   -4.4360 o         1 NM8     -0.177000
     26 NAZ         2.4660   -1.9250   -5.5900 n4        1 NM8     -0.061000
     27 HAA         0.0680   -2.2410   -2.3080 hc        1 NM8      0.179500
     28 HAD         1.1290    0.9400   -0.1370 hc        1 NM8      0.223000
     29 HAF         0.6050   -0.8510   -3.3360 hc        1 NM8      0.179500
     30 HAH        -0.3620   -2.2690    1.3820 ha        1 NM8      0.138500
     31 HAI        -1.4420   -1.2350    2.4890 ha        1 NM8      0.138500
     32 HAL         0.0880    1.6810    3.9040 ha        1 NM8      0.177000
     33 HNAO       -5.1470    2.1830    5.3510 hn        1 NM8      0.284000
     34 HAU         4.8400   -3.0020   -3.7530 ha        1 NM8      0.142000
     35 HAV         5.4930   -2.9800   -1.3010 hc        1 NM8      0.197000
     36 HAW         5.7480   -1.3370   -1.9910 hc        1 NM8      0.197000
     37 HNAZ        2.1150   -2.4470   -6.4050 hn        1 NM8      0.256000
     38 C20         0.4390   -0.5380   -5.7460 c2        1 NM8     -0.420000
     39 C21         1.8090   -0.5960   -5.5830 c2        1 NM8      0.033000
     40 C22         2.6330    0.5250   -5.4560 c2        1 NM8     -0.367000
     41 C23         2.0120    1.7850   -5.6250 c2        1 NM8     -0.011000
     42 C24         0.6780    1.9290   -5.8300 c2        1 NM8     -0.271000
     43 C25        -0.2490    0.7690   -5.8260 c3        1 NM8      0.058000
     44 C26         2.9310    3.0110   -5.6090 c3        1 NM8      0.459000
     45 F1          3.8520    3.0020   -4.5890 f         1 NM8     -0.162333
     46 F2          3.6840    3.1610   -6.7460 f         1 NM8     -0.162333
     47 F3          2.2830    4.2130   -5.4650 f         1 NM8     -0.162333
     48 C27        -1.2130    0.9140   -4.6550 c2        1 NM8      0.071000
     49 N3         -2.0980    1.8500   -4.4770 n3        1 NM8     -0.143000
     50 C28        -3.4600   -2.9420   -2.9810 c2        1 NM8     -0.225000
     51 C29        -2.3550    2.9430   -5.3810 c3        1 NM8     -0.149000
     52 C30        -3.0260    1.2330   -1.0600 c2        1 NM8     -0.070000
     53 N4         -3.5170    1.7860   -2.0960 n2        1 NM8     -0.365000
     54 C31        -2.4090   -2.1470   -3.1300 c2        1 NM8     -0.225000
     55 C32        -6.3460    3.2210   -1.7980 c1        1 NM8      0.114000
     56 C33        -7.4960    3.7780   -1.5650 c2        1 NM8     -0.516000
     57 H13         3.7100    0.4750   -5.2700 ha        1 NM8      0.146000
     58 H14         0.2380    2.9160   -6.0320 ha        1 NM8      0.142000
     59 H15        -1.1460    0.1320   -3.8570 h4        1 NM8      0.185000
     60 H16        -0.8890    0.7930   -6.7640 hc        1 NM8      0.104000
     61 H17        -3.7310   -3.7130   -3.7150 ha        1 NM8      0.113000
     62 H18        -2.6820    1.8510   -3.5870 hn        1 NM8      0.334000
     63 H19        -1.7930    3.8530   -5.0340 h1        1 NM8      0.127000
     64 H20        -3.4570    3.1650   -5.3690 h1        1 NM8      0.127000
     65 H21        -2.0380    2.6940   -6.4290 h1        1 NM8      0.127000
     66 H22        -2.0310    0.7380   -1.1290 h4        1 NM8      0.149500
     67 H23        -1.7400   -2.2100   -3.9990 ha        1 NM8      0.113000
     68 H24        -4.1300   -2.8820   -2.1110 ha        1 NM8      0.113000
     69 H25        -4.4110    2.2340   -2.0220 hn        1 NM8      0.202000
     70 H26        -3.4910    1.1970   -0.0490 h4        1 NM8      0.149500
     71 H27        -7.6160    4.8170   -1.2100 ha        1 NM8      0.206500
     72 H28        -2.1350   -1.3760   -2.3930 ha        1 NM8      0.113000
     73 H29        -8.4660    3.2670   -1.6970 ha        1 NM8      0.206500
     74 HAZ2        3.4790   -1.7870   -5.6810 hn        1 NM8      0.256000
     75 H12        -0.1770   -1.4280   -5.9160 ha        1 NM8      0.135000
@<TRIPOS>BOND
     1    1    2 1   
     2    1    6 1   
     3    1   27 1   
     4    1   29 1   
     5    2    3 1   
     6    2   20 1   
     7    3    4 1   
     8    3   23 1   
     9    4    5 1   
    10    5    6 1   
    11    5    7 1   
    12    5   28 1   
    13    7    8 1   
    14    7   11 1   
    15    8   30 1   
    16    8   31 1   
    17    9   10 1   
    18    9   18 1   
    19   10   11 1   
    20   10   12 1   
    21   12   13 1   
    22   12   32 1   
    23   13   14 1   
    24   13   17 1   
    25   14   15 1   
    26   14   18 1   
    27   15   16 1   
    28   15   33 1   
    29   16   17 1   
    30   16   19 1   
    31   20   21 1   
    32   20   24 1   
    33   21   22 1   
    34   21   34 1   
    35   22   23 1   
    36   22   35 1   
    37   22   36 1   
    38   24   25 1   
    39   24   26 1   
    40   26   37 1   
    41   26   39 1   
    42   26   74 1   
    43   38   39 1   
    44   38   43 1   
    45   38   75 1   
    46   39   40 1   
    47   40   41 1   
    48   40   57 1   
    49   41   42 1   
    50   41   44 1   
    51   42   43 1   
    52   42   58 1   
    53   43   48 1   
    54   43   60 1   
    55   44   45 1   
    56   44   46 1   
    57   44   47 1   
    58   48   49 1   
    59   48   59 1   
    60   49   51 1   
    61   49   62 1   
    62   50   54 1   
    63   50   61 1   
    64   50   68 1   
    65   51   63 1   
    66   51   64 1   
    67   51   65 1   
    68   52   53 1   
    69   52   66 1   
    70   52   70 1   
    71   53   69 1   
    72   54   67 1   
    73   54   72 1   
    74   55   56 1   
    75   56   71 1   
    76   56   73 1   
@<TRIPOS>SUBSTRUCTURE
     1 NM8         1 TEMP              0 ****  ****    0 ROOT
