@<TRIPOS>MOLECULE
NMA
   38    38     1     0     0
SMALL
bcc


@<TRIPOS>ATOM
      1 C4           0.0000     0.0000     0.0000 ca         1 NMA      -0.096300
      2 C4A         -0.7720     0.0010    -1.2950 c3         1 NMA       0.152100
      3 P            4.2990     0.0010    -2.4520 p5         1 NMA       0.661900
      4 O1P          3.9110     1.2100    -3.2130 o          1 NMA      -0.760500
      5 O2P          5.8920     0.0020    -2.2210 o          1 NMA      -0.760500
      6 O3P          3.8770    -1.3120    -3.2820 o          1 NMA      -0.760500
      7 O4P          3.5500     0.0010    -1.0280 os         1 NMA      -0.464200
      8 C5A          2.1470     0.0010    -1.2990 c3         1 NMA       0.255700
      9 C5           1.3840     0.0000     0.0000 ca         1 NMA      -0.106600
     10 N1           1.4010    -0.0010     2.3500 nb         1 NMA      -0.617000
     11 C6           2.0590     0.0000     1.2070 ca         1 NMA       0.382200
     12 C2           0.0850    -0.0010     2.3920 ca         1 NMA       0.248600
     13 C2A         -0.6190    -0.0020     3.7260 c3         1 NMA      -0.015400
     14 C3          -0.6620    -0.0060     1.2240 ca         1 NMA      -0.018200
     15 O3          -2.0200    -0.0080     1.2730 oh         1 NMA      -0.495100
     16 N           -1.0220    -1.3830    -1.7150 n7         1 NMA      -0.492200
     17 C8          -1.7730    -1.3120    -2.9760 c3         1 NMA      -0.002800
     18 C7          -2.0660    -2.7050    -3.4670 c          1 NMA       0.990600
     19 O7          -3.0610    -2.9210    -4.1160 o          1 NMA      -0.902300
     20 O8          -1.2190    -3.7080    -3.1830 o          1 NMA      -0.902300
     21 C9          -3.0900    -0.5670    -2.7440 c3         1 NMA      -0.016600
     22 C10         -0.9430    -0.5660    -4.0220 c3         1 NMA      -0.016600
     23 H4A1        -0.1970     0.5120    -2.0570 h1         1 NMA       0.019200
     24 H4A2        -1.7160     0.5120    -1.1520 h1         1 NMA       0.019200
     25 H5A1         1.8890    -0.8830    -1.8700 h1         1 NMA       0.044700
     26 H5A2         1.8890     0.8860    -1.8680 h1         1 NMA       0.044700
     27 H6           3.1420    -0.0000     1.2140 h4         1 NMA       0.025100
     28 H2A1        -1.1670     0.9240     3.8460 hc         1 NMA      -0.013300
     29 H2A2         0.1130    -0.0950     4.5200 hc         1 NMA      -0.013300
     30 H2A3        -1.3070    -0.8380     3.7700 hc         1 NMA      -0.013300
     31 HO3         -2.3280     0.8530     1.5030 ho         1 NMA       0.368000
     32 HN          -1.5760    -1.8470    -1.0230 hn         1 NMA       0.244800
     33 H91         -3.5490    -0.9230    -1.8290 hc         1 NMA       0.002033
     34 H92         -2.8940     0.4950    -2.6600 hc         1 NMA       0.002033
     35 H93         -3.7580    -0.7470    -3.5770 hc         1 NMA       0.002033
     36 H101         0.0750    -0.9350    -4.0060 hc         1 NMA       0.002033
     37 H102        -0.9460     0.4940    -3.7970 hc         1 NMA       0.002033
     38 H103        -1.3700    -0.7270    -5.0040 hc         1 NMA       0.002033
@<TRIPOS>BOND
     1     1     2 1   
     2     1     9 ar  
     3     1    14 ar  
     4     2    16 1   
     5     2    23 1   
     6     2    24 1   
     7     3     4 1   
     8     3     5 1   
     9     3     6 1   
    10     3     7 1   
    11     7     8 1   
    12     8     9 1   
    13     8    25 1   
    14     8    26 1   
    15     9    11 ar  
    16    10    11 ar  
    17    10    12 ar  
    18    11    27 1   
    19    12    13 1   
    20    12    14 ar  
    21    13    28 1   
    22    13    29 1   
    23    13    30 1   
    24    14    15 1   
    25    15    31 1   
    26    16    17 1   
    27    16    32 1   
    28    17    18 1   
    29    17    21 1   
    30    17    22 1   
    31    18    19 1   
    32    18    20 1   
    33    21    33 1   
    34    21    34 1   
    35    21    35 1   
    36    22    36 1   
    37    22    37 1   
    38    22    38 1   
@<TRIPOS>SUBSTRUCTURE
     1 NMA         1 TEMP              0 ****  ****    0 ROOT
