@<TRIPOS>MOLECULE
molecule
   75    79     1     0     0
SMALL
bcc


@<TRIPOS>ATOM
      1 N01          0.0000     0.0000     0.0000 n3         1 NMB      -0.793000
      2 S02          1.6700     0.0000     0.0000 s6         1 NMB       1.546800
      3 N03          2.1560     0.0000     1.5970 n3         1 NMB      -0.793000
      4 C04          1.4300     0.7950     2.5590 c3         1 NMB       0.257000
      5 C05          0.2560     0.0150     3.1490 c3         1 NMB       0.087100
      6 C06         -0.9300    -0.0110     2.2700 c3         1 NMB       0.087100
      7 C07         -0.7120    -0.7930     0.9770 c3         1 NMB       0.257000
      8 C08         -0.7370     0.8000    -0.9800 c3         1 NMB       0.291100
      9 C09         -1.0840     2.1380    -0.3790 ca         1 NMB      -0.097300
     10 C10         -0.1350     3.1410    -0.3330 ca         1 NMB      -0.098750
     11 C11         -0.4530     4.3690     0.2180 ca         1 NMB      -0.145250
     12 C12         -1.7190     4.5920     0.7220 ca         1 NMB      -0.128500
     13 C13         -2.6700     3.5890     0.6750 ca         1 NMB      -0.145250
     14 C14         -2.3530     2.3620     0.1200 ca         1 NMB      -0.098750
     15 O15          2.0570    -1.2640    -0.5230 o          1 NMB      -0.641800
     16 C17          4.2320     2.3380     4.2100 ca         1 NMB       0.115600
     17 C18          5.3020     3.2000     4.0220 ca         1 NMB      -0.190750
     18 C19          6.1320     3.5100     5.0820 ca         1 NMB      -0.092000
     19 C20          5.8990     2.9610     6.3290 ca         1 NMB      -0.163000
     20 C21          4.8320     2.1020     6.5190 ca         1 NMB      -0.092000
     21 C22          3.9950     1.7930     5.4630 ca         1 NMB      -0.190750
     22 C23          3.3090    -0.8000     2.0180 c3         1 NMB       0.291100
     23 C24          2.8340    -2.1340     2.5340 ca         1 NMB      -0.097300
     24 C25          2.5140    -3.1440     1.6450 ca         1 NMB      -0.098750
     25 C26          2.0780    -4.3670     2.1180 ca         1 NMB      -0.145250
     26 C27          1.9640    -4.5820     3.4780 ca         1 NMB      -0.128500
     27 C28          2.2860    -3.5730     4.3660 ca         1 NMB      -0.145250
     28 C29          2.7260    -2.3500     3.8940 ca         1 NMB      -0.098750
     29 O30          0.6750    -1.3290     3.3900 oh         1 NMB      -0.574800
     30 O31         -1.2800     1.3330     1.9340 oh         1 NMB      -0.574800
     31 C32         -2.0700    -1.1970     0.3980 c3         1 NMB       0.106900
     32 O33         -1.8750    -1.9300    -0.8110 os         1 NMB      -0.284400
     33 C34         -3.1090    -2.2600    -1.2750 ca         1 NMB       0.115600
     34 C35         -3.2380    -2.9840    -2.4510 ca         1 NMB      -0.190750
     35 C36         -4.4940    -3.3190    -2.9200 ca         1 NMB      -0.092000
     36 C37         -5.6200    -2.9310    -2.2190 ca         1 NMB      -0.163000
     37 C38         -5.4940    -2.2090    -1.0470 ca         1 NMB      -0.092000
     38 C39         -4.2400    -1.8780    -0.5700 ca         1 NMB      -0.190750
     39 O40          2.0580     1.2600    -0.5260 o          1 NMB      -0.641800
     40 C41          2.3750     1.2000     3.6910 c3         1 NMB       0.106900
     41 H04          1.0530     1.6840     2.0690 h1         1 NMB       0.101700
     42 H05         -0.0230     0.4720     4.0900 h1         1 NMB       0.034200
     43 H06         -1.7510    -0.4630     2.8120 h1         1 NMB       0.034200
     44 H07         -0.1350    -1.6840     1.1960 h1         1 NMB       0.101700
     45 H081        -1.6480     0.2830    -1.2580 h1         1 NMB       0.064700
     46 H082        -0.1240     0.9480    -1.8610 h1         1 NMB       0.064700
     47 H10          0.8590     2.9660    -0.7290 ha         1 NMB       0.144000
     48 H11          0.2910     5.1550     0.2550 ha         1 NMB       0.125500
     49 H12         -1.9680     5.5530     1.1550 ha         1 NMB       0.123500
     50 H13         -3.6630     3.7650     1.0690 ha         1 NMB       0.125500
     51 H14         -3.0970     1.5760     0.0830 ha         1 NMB       0.144000
     52 H18          5.4860     3.6310     3.0460 ha         1 NMB       0.141500
     53 H19          6.9680     4.1830     4.9350 ha         1 NMB       0.132000
     54 H20          6.5530     3.2040     7.1580 ha         1 NMB       0.131000
     55 H21          4.6490     1.6750     7.4970 ha         1 NMB       0.132000
     56 H22          3.1590     1.1200     5.6130 ha         1 NMB       0.141500
     57 H231         3.9700    -0.9540     1.1730 h1         1 NMB       0.064700
     58 H232         3.8430    -0.2790     2.8040 h1         1 NMB       0.064700
     59 H25          2.6030    -2.9760     0.5790 ha         1 NMB       0.144000
     60 H26          1.8260    -5.1580     1.4220 ha         1 NMB       0.125500
     61 H27          1.6210    -5.5410     3.8480 ha         1 NMB       0.123500
     62 H28          2.1990    -3.7420     5.4330 ha         1 NMB       0.125500
     63 H29          2.9780    -1.5590     4.5900 ha         1 NMB       0.144000
     64 HO3          0.1300    -1.7130     4.0580 ho         1 NMB       0.397000
     65 HO1         -1.7610     1.7200     2.6470 ho         1 NMB       0.397000
     66 H321        -2.5980    -1.8160     1.1140 h1         1 NMB       0.051200
     67 H322        -2.6530    -0.3080     0.1910 h1         1 NMB       0.051200
     68 H35         -2.3550    -3.2890    -3.0000 ha         1 NMB       0.141500
     69 H36         -4.5960    -3.8850    -3.8380 ha         1 NMB       0.132000
     70 H37         -6.6040    -3.1920    -2.5900 ha         1 NMB       0.131000
     71 H38         -6.3780    -1.9090    -0.4980 ha         1 NMB       0.132000
     72 H39         -4.1420    -1.3120     0.3480 ha         1 NMB       0.141500
     73 H411         2.8110     0.3130     4.1320 h1         1 NMB       0.051200
     74 H412         1.8210     1.7440     4.4460 h1         1 NMB       0.051200
     75 O16          3.4130     2.0330     3.1700 os         1 NMB      -0.284400
@<TRIPOS>BOND
     1     1     2 1
     2     1     7 1
     3     1     8 1
     4     2     3 1
     5     2    15 2
     6     2    39 2
     7     3     4 1
     8     3    22 1
     9     4     5 1
    10     4    40 1
    11     4    41 1
    12     5     6 1
    13     5    29 1
    14     5    42 1
    15     6     7 1
    16     6    30 1
    17     6    43 1
    18     7    31 1
    19     7    44 1
    20     8     9 1
    21     8    45 1
    22     8    46 1
    23     9    10 ar
    24     9    14 ar
    25    10    11 ar
    26    10    47 1
    27    11    12 ar
    28    11    48 1
    29    12    13 ar
    30    12    49 1
    31    13    14 ar
    32    13    50 1
    33    14    51 1
    34    75    16 1
    35    75    40 1
    36    16    17 ar
    37    16    21 ar
    38    17    18 ar
    39    17    52 1
    40    18    19 ar
    41    18    53 1
    42    19    20 ar
    43    19    54 1
    44    20    21 ar
    45    20    55 1
    46    21    56 1
    47    22    23 1
    48    22    57 1
    49    22    58 1
    50    23    24 ar
    51    23    28 ar
    52    24    25 ar
    53    24    59 1
    54    25    26 ar
    55    25    60 1
    56    26    27 ar
    57    26    61 1
    58    27    28 ar
    59    27    62 1
    60    28    63 1
    61    29    64 1
    62    30    65 1
    63    31    32 1
    64    31    66 1
    65    31    67 1
    66    32    33 1
    67    33    34 ar
    68    33    38 ar
    69    34    35 ar
    70    34    68 1
    71    35    36 ar
    72    35    69 1
    73    36    37 ar
    74    36    70 1
    75    37    38 ar
    76    37    71 1
    77    38    72 1
    78    40    73 1
    79    40    74 1
@<TRIPOS>SUBSTRUCTURE
     1 NMB         1 TEMP              0 ****  ****    0 ROOT
