@<TRIPOS>MOLECULE
NMD
   72    77     1     0     0
SMALL
bcc


@<TRIPOS>ATOM
      1 C5'          0.0000     0.0000     0.0000 c3         1 NMD       0.220400
      2 C4'          1.5300     0.0000     0.0000 c3         1 NMD       0.143100
      3 O4'          2.0220     0.0000     1.3500 os         1 NMD      -0.376600
      4 C3'          2.0540    -1.2790    -0.6790 c3         1 NMD       0.140100
      5 O3'          2.8460    -0.9540    -1.8230 oh         1 NMD      -0.576800
      6 C2'          2.9240    -1.9560     0.4080 c3         1 NMD      -0.034300
      7 N2'          4.1520    -2.5070    -0.1730 ns         1 NMD      -0.160900
      8 C1'          3.2420    -0.7710     1.3550 c3         1 NMD       0.147800
      9 N9A          3.5450    -1.2510     2.7050 na         1 NMD       0.209000
     10 C8A          2.6390    -1.5200     3.6870 cc         1 NMD       0.256700
     11 N7A          3.2530    -1.9270     4.7580 nd         1 NMD      -0.492100
     12 C5A          4.5880    -1.9460     4.5340 ca         1 NMD      -0.237200
     13 C6A          5.7140    -2.2860     5.3010 ca         1 NMD       0.604200
     14 N6A          5.5760    -2.7200     6.6080 nu         1 NMD      -0.466900
     15 N1A          6.9160    -2.1810     4.7430 nb         1 NMD      -0.749000
     16 C2A          7.0570    -1.7690     3.4970 ca         1 NMD       0.695900
     17 N3A          6.0320    -1.4400     2.7410 nb         1 NMD      -0.697000
     18 C4A          4.7910    -1.5180     3.2110 ca         1 NMD       0.269800
     19 C11          6.7620    -3.0710     7.3930 c3         1 NMD       0.216100
     20 C1           6.3510    -3.4040     8.8040 ca         1 NMD      -0.113300
     21 C9           6.0330    -2.3760     9.7080 ca         1 NMD      -0.019000
     22 C8           6.0780    -1.0250     9.3220 ca         1 NMD      -0.102000
     23 C7           5.7570    -0.0580    10.2230 ca         1 NMD      -0.090000
     24 C6           5.3800    -0.3850    11.5250 ca         1 NMD      -0.100000
     25 C2           6.2910    -4.7010     9.2110 ca         1 NMD      -0.076000
     26 C10          5.6440    -2.7090    11.0300 ca         1 NMD      -0.038000
     27 C5           5.3200    -1.6810    11.9320 ca         1 NMD      -0.085000
     28 C3           5.9140    -5.0280    10.5110 ca         1 NMD      -0.106000
     29 C4           5.5930    -4.0600    11.4130 ca         1 NMD      -0.076000
     30 C7B          4.1960    -3.7990    -0.5530 c          1 NMD       0.600700
     31 O7B          3.2190    -4.5070    -0.4150 o          1 NMD      -0.656100
     32 C6B          5.4340    -4.3540    -1.1390 ca         1 NMD      -0.081600
     33 C5B          6.5590    -3.5450    -1.2930 ca         1 NMD      -0.140000
     34 C4B          7.7160    -4.0670    -1.8470 ca         1 NMD       0.167100
     35 O2M          8.8110    -3.2780    -2.0020 os         1 NMD      -0.277900
     36 C2M          9.8300    -4.0940    -2.5840 c3         1 NMD       0.217200
     37 C3B          7.7600    -5.3980    -2.2380 ca         1 NMD      -0.324000
     38 C1B          5.4820    -5.6910    -1.5340 ca         1 NMD      -0.140000
     39 C2B          6.6450    -6.2070    -2.0820 ca         1 NMD       0.167100
     40 O1M          6.6930    -7.5100    -2.4660 os         1 NMD      -0.277900
     41 C1M          8.0060    -7.7390    -2.9840 c3         1 NMD       0.217200
     42 O5'         -0.4770     1.1900     0.6310 oh         1 NMD      -0.578800
     43 H5'1        -0.3610    -0.8660     0.5420 h1         1 NMD      -0.006800
     44 H5'2        -0.3610    -0.0370    -1.0210 h1         1 NMD      -0.006800
     45 H4'          1.9020     0.8720    -0.5250 h1         1 NMD       0.046700
     46 H3'          1.2280    -1.9240    -0.9550 h1         1 NMD       0.029700
     47 HO3'         2.3230    -1.0380    -2.6020 ho         1 NMD       0.401000
     48 H2'          2.3590    -2.7200     0.9290 h1         1 NMD       0.083700
     49 HN2'         4.9470    -1.9160    -0.3150 hn         1 NMD       0.199500
     50 H1'          4.0620    -0.1830     0.9610 h2         1 NMD       0.059700
     51 H8A          1.5660    -1.4100     3.5890 h5         1 NMD       0.040800
     52 H6A          4.6640    -2.8250     7.0060 hn         1 NMD       0.315800
     53 H2A          8.0550    -1.6980     3.0810 h5         1 NMD      -0.005900
     54 H111         7.2490    -3.9300     6.9470 h1         1 NMD       0.032200
     55 H112         7.4490    -2.2340     7.4040 h1         1 NMD       0.032200
     56 H8           6.3690    -0.7560     8.3140 ha         1 NMD       0.117000
     57 H7           5.7970     0.9830     9.9250 ha         1 NMD       0.102000
     58 H6           5.1300     0.4050    12.2220 ha         1 NMD       0.102000
     59 H2           6.5420    -5.4910     8.5130 ha         1 NMD       0.107000
     60 H5           5.0250    -1.9200    12.9460 ha         1 NMD       0.106000
     61 H3           5.8750    -6.0680    10.8100 ha         1 NMD       0.103000
     62 H4           5.3020    -4.3290    12.4210 ha         1 NMD       0.106000
     63 H5B          6.5130    -2.4970    -1.0230 ha         1 NMD       0.132500
     64 H2M1        10.0460    -4.9270    -1.9260 h1         1 NMD       0.002200
     65 H2M2        10.7270    -3.5050    -2.7270 h1         1 NMD       0.002200
     66 H2M3         9.4890    -4.4700    -3.5410 h1         1 NMD       0.002200
     67 H3B          8.6670    -5.8050    -2.6690 ha         1 NMD       0.164000
     68 H1B          4.6120    -6.3250    -1.4130 ha         1 NMD       0.132500
     69 H1M1         8.0920    -8.7700    -3.3050 h1         1 NMD       0.002200
     70 H1M2         8.7390    -7.5380    -2.2130 h1         1 NMD       0.002200
     71 H1M3         8.1800    -7.0820    -3.8280 h1         1 NMD       0.002200
     72 HO5'        -1.4180     1.2190     0.5770 ho         1 NMD       0.392000
@<TRIPOS>BOND
     1     1     2 1   
     2     1    42 1   
     3     1    43 1   
     4     1    44 1   
     5     2     3 1   
     6     2     4 1   
     7     2    45 1   
     8     3     8 1   
     9     4     5 1   
    10     4     6 1   
    11     4    46 1   
    12     5    47 1   
    13     6     7 1   
    14     6     8 1   
    15     6    48 1   
    16     7    30 1   
    17     7    49 1   
    18     8     9 1   
    19     8    50 1   
    20     9    10 1   
    21     9    18 1   
    22    10    11 2   
    23    10    51 1   
    24    11    12 1   
    25    12    13 ar  
    26    12    18 ar  
    27    13    14 1   
    28    13    15 ar  
    29    14    19 1   
    30    14    52 1   
    31    15    16 ar  
    32    16    17 ar  
    33    16    53 1   
    34    17    18 ar  
    35    19    20 1   
    36    19    54 1   
    37    19    55 1   
    38    20    21 ar  
    39    20    25 ar  
    40    21    22 ar  
    41    21    26 ar  
    42    22    23 ar  
    43    22    56 1   
    44    23    24 ar  
    45    23    57 1   
    46    24    27 ar  
    47    24    58 1   
    48    25    28 ar  
    49    25    59 1   
    50    26    27 ar  
    51    26    29 ar  
    52    27    60 1   
    53    28    29 ar  
    54    28    61 1   
    55    29    62 1   
    56    30    31 2   
    57    30    32 1   
    58    32    33 ar  
    59    32    38 ar  
    60    33    34 ar  
    61    33    63 1   
    62    34    35 1   
    63    34    37 ar  
    64    35    36 1   
    65    36    64 1   
    66    36    65 1   
    67    36    66 1   
    68    37    39 ar  
    69    37    67 1   
    70    38    39 ar  
    71    38    68 1   
    72    39    40 1   
    73    40    41 1   
    74    41    69 1   
    75    41    70 1   
    76    41    71 1   
    77    42    72 1   
@<TRIPOS>SUBSTRUCTURE
     1 NMD         1 TEMP              0 ****  ****    0 ROOT
