@<TRIPOS>MOLECULE
molecule
    8     7     1     0     0
SMALL
bcc


@<TRIPOS>ATOM
      1 N            0.0000     0.0000     0.0000 nz         1 NME      -0.809600
      2 C            1.4690     0.0000     0.0000 c3         1 NME       0.084100
      3 HN1         -0.3340     0.0000     0.9440 hn         1 NME       0.461800
      4 HN2         -0.3340     0.8170    -0.4720 hn         1 NME       0.461800
      5 H1           1.8300    -0.0000    -1.0210 hx         1 NME       0.113700
      6 H2           1.8300     0.8850     0.5110 hx         1 NME       0.113700
      7 H3           1.8300    -0.8850     0.5110 hx         1 NME       0.113700
      8 HN3         -0.3340    -0.8170    -0.4720 hn         1 NME       0.461800
@<TRIPOS>BOND
     1     1     2 1
     2     1     3 1
     3     1     4 1
     4     2     5 1
     5     2     6 1
     6     2     7 1
     7     8     1 1
@<TRIPOS>SUBSTRUCTURE
     1 NME         1 TEMP              0 ****  ****    0 ROOT
