@<TRIPOS>MOLECULE
molecule
   31    31     1     0     0
SMALL
bcc


@<TRIPOS>ATOM
      1 F            0.0000     0.0000     0.0000 f          1 NMF      -0.243300
      2 C1          -1.9500     0.7710     3.3470 c          1 NMF       0.812500
      3 N1          -0.6120     0.6980     3.2200 n          1 NMF      -0.359000
      4 O1          -2.5050     0.1280     4.2180 o          1 NMF      -0.660500
      5 C2          -2.0800     2.2700     1.5600 c          1 NMF       0.714700
      6 N2          -2.6810     1.5480     2.5270 ns         1 NMF      -0.557500
      7 O2          -2.7410     2.9740     0.8180 o          1 NMF      -0.624500
      8 C3          -0.6740     2.1940     1.4090 cc         1 NMF      -0.258400
      9 O3           3.7760    -1.4440     0.9210 oh         1 NMF      -0.608800
     10 C4           0.0220     2.9910     0.3360 c3         1 NMF      -0.022900
     11 C5           0.0350     1.4100     2.2480 cd         1 NMF       0.080400
     12 C11          1.5340     1.3210     2.1160 c3         1 NMF      -0.048200
     13 C12          1.9090     0.0000     1.4420 c3         1 NMF      -0.106700
     14 C13          3.4310    -0.1600     1.4450 c3         1 NMF       0.144400
     15 C14          1.3990     0.0000     0.0000 c3         1 NMF       0.165900
     16 HN2         -3.6750     1.5900     2.6360 hn         1 NMF       0.363500
     17 HO3          4.6870    -1.6170     1.0890 ho         1 NMF       0.410000
     18 H4           0.3370     2.3270    -0.4600 hc         1 NMF       0.049033
     19 H4A         -0.6590     3.7340    -0.0620 hc         1 NMF       0.049033
     20 H4B          0.8890     3.4850     0.7580 hc         1 NMF       0.049033
     21 H6          -0.4190    -0.3320     5.0320 h1         1 NMF       0.059033
     22 H6A          0.3730    -1.0980     3.6480 h1         1 NMF       0.059033
     23 H6B          1.0860     0.3410     4.3900 h1         1 NMF       0.059033
     24 H11          1.8940     2.1480     1.5160 hc         1 NMF       0.068200
     25 H11A         1.9870     1.3660     3.1000 hc         1 NMF       0.068200
     26 H12          1.4590    -0.8230     1.9840 hc         1 NMF       0.081700
     27 H13          3.8760     0.6130     0.8300 h1         1 NMF       0.026200
     28 H13A         3.8010    -0.0720     2.4590 h1         1 NMF       0.026200
     29 H14          1.7600     0.8820    -0.5150 h1         1 NMF       0.055700
     30 H14A         1.7600    -0.8870    -0.5060 h1         1 NMF       0.055700
     31 C6           0.1570    -0.1530     4.1320 c3         1 NMF       0.092300
@<TRIPOS>BOND
     1     1    15 1
     2     2     3 1
     3     2     4 2
     4     2     6 1
     5     3    11 1
     6     3    31 1
     7     5     6 1
     8     5     7 2
     9     5     8 1
    10     8    10 1
    11     8    11 2
    12     9    14 1
    13    11    12 1
    14    12    13 1
    15    13    14 1
    16    13    15 1
    17     6    16 1
    18     9    17 1
    19    10    18 1
    20    10    19 1
    21    10    20 1
    22    31    21 1
    23    31    22 1
    24    31    23 1
    25    12    24 1
    26    12    25 1
    27    13    26 1
    28    14    27 1
    29    14    28 1
    30    15    29 1
    31    15    30 1
@<TRIPOS>SUBSTRUCTURE
     1 NMF         1 TEMP              0 ****  ****    0 ROOT
