@<TRIPOS>MOLECULE
NMG
   16    13     1     0     0
SMALL
bcc


@<TRIPOS>ATOM
      1 CG         -2.1500    0.9760   -0.1450 c1        1 NMG      0.898000
      2 CD          1.2760   -1.4530    0.0500 c2        1 NMG      0.499100
      3 NE          1.6610   -0.5630    0.8760 n2        1 NMG     -0.902100
      4 CZ          4.6650    0.7810    1.8750 c2        1 NMG      0.531100
      5 NH1         4.0520   -0.4050    2.5340 n4        1 NMG     -0.822600
      6 NH2         5.7950    1.1950    2.2840 n2        1 NMG     -0.712100
      7 O1         -3.2190    1.4250   -0.3870 o         1 NMG     -0.448500
      8 O2         -1.0710    0.5240    0.1000 o         1 NMG     -0.448500
      9 HD1         1.9400   -2.3150   -0.1570 h4        1 NMG     -0.001700
     10 HD2         0.3150   -1.4570   -0.5030 h4        1 NMG     -0.001700
     11 HNE         3.9910    1.1510    1.0640 hx        1 NMG      0.075800
     12 HH11        4.6430   -0.7990    3.2760 hn        1 NMG      0.475800
     13 HH12        3.1480   -0.1240    2.9330 hn        1 NMG      0.475800
     14 HH2         6.2140    1.9900    1.8480 hn        1 NMG      0.493400
     15 HE3         1.0270    0.1950    1.0310 hn        1 NMG      0.411400
     16 HH13        3.8830   -1.1220    1.8150 hn        1 NMG      0.475800
@<TRIPOS>BOND
     1    1    7 2   
     2    1    8 2   
     3    2    3 2   
     4    2    9 1   
     5    2   10 1   
     6    3   15 1   
     7    4    5 1   
     8    4    6 2   
     9    4   11 1   
    10    5   12 1   
    11    5   13 1   
    12    5   16 1   
    13    6   14 1   
@<TRIPOS>SUBSTRUCTURE
     1 NMG         1 TEMP              0 ****  ****    0 ROOT
