@<TRIPOS>MOLECULE
molecule
   27    26     1     0     0
SMALL
bcc


@<TRIPOS>ATOM
      1 C7           0.0000     0.0000     0.0000 c3         1 NMH      -0.092100
      2 C6           1.5290     0.0000     0.0000 c3         1 NMH      -0.083400
      3 C5           2.0400     0.0000     1.4420 c3         1 NMH      -0.082400
      4 C4           3.5700    -0.0000     1.4420 c3         1 NMH      -0.082400
      5 C3           4.0810    -0.0000     2.8840 c3         1 NMH      -0.095400
      6 C2           5.6090    -0.0000     2.8830 c3         1 NMH       0.105700
      7 C1           6.1190    -0.0010     4.3260 c3         1 NMH      -0.108100
      8 N            6.0970    -1.1950     2.1940 ns         1 NMH      -0.591900
      9 C            7.2750    -1.1620     1.5390 c          1 NMH       0.655900
     10 O            7.9300    -0.1420     1.5210 o          1 NMH      -0.615100
     11 HC71        -0.3610    -0.8850     0.5100 hc         1 NMH       0.033033
     12 HC72        -0.3610     0.0000    -1.0210 hc         1 NMH       0.033033
     13 HC73        -0.3610     0.8840     0.5110 hc         1 NMH       0.033033
     14 HC61         1.8900     0.8840    -0.5110 hc         1 NMH       0.040700
     15 HC62         1.8900    -0.8840    -0.5110 hc         1 NMH       0.040700
     16 HC51         1.6790    -0.8840     1.9520 hc         1 NMH       0.040700
     17 HC52         1.6790     0.8840     1.9520 hc         1 NMH       0.040700
     18 HC41         3.9310    -0.8850     0.9310 hc         1 NMH       0.045200
     19 HC42         3.9310     0.8840     0.9310 hc         1 NMH       0.045200
     20 HC31         3.7200    -0.8850     3.3940 hc         1 NMH       0.047700
     21 HC32         3.7200     0.8840     3.3940 hc         1 NMH       0.047700
     22 HC2          5.9700     0.8850     2.3730 h1         1 NMH       0.085700
     23 HC11         5.7510    -0.8810     4.8390 hc         1 NMH       0.041367
     24 HC12         7.2020    -0.0090     4.3260 hc         1 NMH       0.041367
     25 HC13         5.7650     0.8880     4.8350 hc         1 NMH       0.041367
     26 HN'          5.5770    -2.0480     2.2430 hn         1 NMH       0.311500
     27 HC'          7.6470    -2.0520     1.0470 h5         1 NMH       0.021200
@<TRIPOS>BOND
     1     1     2 1
     2     1    11 1
     3     1    12 1
     4     1    13 1
     5     2     3 1
     6     2    14 1
     7     2    15 1
     8     3     4 1
     9     3    16 1
    10     3    17 1
    11     4     5 1
    12     4    18 1
    13     4    19 1
    14     5     6 1
    15     5    20 1
    16     5    21 1
    17     6     7 1
    18     6     8 1
    19     6    22 1
    20     7    23 1
    21     7    24 1
    22     7    25 1
    23     8     9 1
    24     8    26 1
    25     9    10 2
    26     9    27 1
@<TRIPOS>SUBSTRUCTURE
     1 NMH         1 TEMP              0 ****  ****    0 ROOT
