@<TRIPOS>MOLECULE
molecule
   27    28     1     0     0
SMALL
bcc


@<TRIPOS>ATOM
      1 CAA          0.0000     0.0000     0.0000 c3         1 NMI       0.048600
      2 NAN          1.4650     0.0000     0.0000 na         1 NMI      -0.085400
      3 CAH          2.2520     0.0000     1.1190 cc         1 NMI      -0.131100
      4 CAM          2.2560    -0.0050    -1.1270 ca         1 NMI      -0.023200
      5 CAG          1.9810    -0.0070    -2.4900 ca         1 NMI      -0.162000
      6 CAE          3.0170    -0.0130    -3.3980 ca         1 NMI      -0.135000
      7 CAD          4.3360    -0.0170    -2.9660 ca         1 NMI      -0.196000
      8 CAF          4.6300    -0.0140    -1.6320 ca         1 NMI      -0.054000
      9 CAL          3.5950    -0.0080    -0.6950 ca         1 NMI      -0.079800
     10 CAK          3.5480     0.0000     0.7700 cd         1 NMI      -0.107400
     11 CAJ          4.7290     0.0060     1.7050 c3         1 NMI       0.000800
     12 CAI          5.2070     1.4450     1.9140 c3         1 NMI      -0.178400
     13 CAC          6.3890     1.4510     2.8490 c          1 NMI       0.889600
     14 OAB          6.8070     0.4110     3.3020 o          1 NMI      -0.857300
     15 O1           6.9770     2.6110     3.1800 o          1 NMI      -0.857300
     16 H1          -0.3610    -0.8860    -0.5080 h1         1 NMI       0.037700
     17 H2          -0.3610     0.8830    -0.5140 h1         1 NMI       0.037700
     18 H3          -0.3610     0.0040     1.0210 h1         1 NMI       0.037700
     19 H4           1.8830    -0.0010     2.1380 h4         1 NMI       0.164000
     20 H5           1.0420    -0.0020    -3.0310 ha         1 NMI       0.114000
     21 H6           2.8220    -0.0170    -4.4640 ha         1 NMI       0.111000
     22 H7           5.1090    -0.0170    -3.7250 ha         1 NMI       0.115000
     23 H8           5.7070    -0.1040    -1.5500 ha         1 NMI       0.140000
     24 H9           5.5320    -0.5820     1.2760 hc         1 NMI       0.053200
     25 H10          4.4390    -0.4200     2.6570 hc         1 NMI       0.053200
     26 H11          5.4980     1.8710     0.9610 hc         1 NMI       0.032200
     27 H12          4.4040     2.0330     2.3420 hc         1 NMI       0.032200
@<TRIPOS>BOND
     1     7     8 ar
     2     7     6 ar
     3     8     9 ar
     4     6     5 ar
     5     9     4 ar
     6     9    10 1
     7     5     4 ar
     8    12    11 1
     9    12    13 1
    10    11    10 1
    11     4     2 1
    12    10     3 2
    13    14    13 1
    14     2     3 1
    15     2     1 1
    16    13    15 1
    17     1    16 1
    18     1    17 1
    19     1    18 1
    20     3    19 1
    21     5    20 1
    22     6    21 1
    23     7    22 1
    24     8    23 1
    25    11    24 1
    26    11    25 1
    27    12    26 1
    28    12    27 1
@<TRIPOS>SUBSTRUCTURE
     1 NMI         1 TEMP              0 ****  ****    0 ROOT
