@<TRIPOS>MOLECULE
NMI
   27    28     1     0     0
SMALL
bcc


@<TRIPOS>ATOM
      1 CAA         0.1690    0.3280    0.0180 c3        1 NMI      0.037600
      2 NAN         1.5530    0.0060   -0.0480 na        1 NMI     -0.089400
      3 CAH         2.4660    0.2220    1.0080 cc        1 NMI     -0.131100
      4 CAM         2.2950   -0.0970   -1.2350 ca        1 NMI     -0.046200
      5 CAG         1.8860   -0.2860   -2.5620 ca        1 NMI     -0.157000
      6 CAE         2.8700   -0.4120   -3.5340 ca        1 NMI     -0.126000
      7 CAD         4.2340   -0.3570   -3.2100 ca        1 NMI     -0.176000
      8 CAF         4.6550   -0.1710   -1.8980 ca        1 NMI     -0.073000
      9 CAL         3.7010   -0.0350   -0.8930 ca        1 NMI     -0.088800
     10 CAK         3.7760    0.1720    0.5440 cd        1 NMI     -0.077400
     11 CAJ         5.0050    0.2770    1.3470 c3        1 NMI     -0.017200
     12 CAI         5.0000    1.4420    2.3110 c3        1 NMI     -0.190400
     13 CAC         6.1170    1.3060    3.3620 c         1 NMI      0.906600
     14 OAB         6.3780    0.1570    3.8220 o         1 NMI     -0.849800
     15 O1          6.7040    2.3630    3.7310 o         1 NMI     -0.849800
     16 H1         -0.3920   -0.2750   -0.7460 h1        1 NMI      0.036700
     17 H2         -0.0160    1.4190   -0.1840 h1        1 NMI      0.036700
     18 H3         -0.2190    0.0830    1.0420 h1        1 NMI      0.036700
     19 H4          2.1040    0.3670    2.0270 h4        1 NMI      0.170000
     20 H5          0.8220   -0.3320   -2.8250 ha        1 NMI      0.118000
     21 H6          2.5740   -0.5570   -4.5830 ha        1 NMI      0.112000
     22 H7          4.9790   -0.4620   -4.0110 ha        1 NMI      0.117000
     23 H8          5.7260   -0.1290   -1.6470 ha        1 NMI      0.140000
     24 H9          5.8910    0.3660    0.6620 hc        1 NMI      0.060200
     25 H10         5.1460   -0.6690    1.9450 hc        1 NMI      0.060200
     26 H11         5.1250    2.4070    1.7600 hc        1 NMI      0.021700
     27 H12         4.0240    1.4840    2.8590 hc        1 NMI      0.021700
@<TRIPOS>BOND
     1    1    2 1   
     2    1   16 1   
     3    1   17 1   
     4    1   18 1   
     5    2    3 1   
     6    2    4 1   
     7    3   10 2   
     8    3   19 1   
     9    4    5 ar  
    10    4    9 ar  
    11    5    6 ar  
    12    5   20 1   
    13    6    7 ar  
    14    6   21 1   
    15    7    8 ar  
    16    7   22 1   
    17    8    9 ar  
    18    8   23 1   
    19    9   10 1   
    20   10   11 1   
    21   11   12 1   
    22   11   24 1   
    23   11   25 1   
    24   12   13 1   
    25   12   26 1   
    26   12   27 1   
    27   13   14 1   
    28   13   15 1   
@<TRIPOS>SUBSTRUCTURE
     1 NMI         1 TEMP              0 ****  ****    0 ROOT
