@<TRIPOS>MOLECULE
NMK
   27    26     1     0     0
SMALL
bcc


@<TRIPOS>ATOM
      1 N            0.0000     0.0000     0.0000 n7         1 NMK      -0.636200
      2 CA           1.4690     0.0000     0.0000 c3         1 NMK       0.003500
      3 CB           1.9790     0.0000     1.4430 c3         1 NMK       0.003600
      4 CG           1.5740     1.3070     2.1280 c3         1 NMK      -0.027400
      5 CD           2.0830     1.3060     3.5700 c3         1 NMK      -0.038400
      6 CE           1.6780     2.6130     4.2550 c3         1 NMK      -0.058200
      7 NZ           2.1680     2.6120     5.6400 nz         1 NMK       0.079400
      8 C            1.9720    -1.2300    -0.7110 c          1 NMK       0.953600
      9 O            1.2910    -2.2270    -0.7470 o          1 NMK      -0.875300
     10 CN          -0.5270     0.5940    -1.2350 c3         1 NMK       0.183100
     11 OXT          3.1750    -1.2160    -1.3050 o          1 NMK      -0.875300
     12 H           -0.3340    -0.9400     0.0870 hn         1 NMK       0.289800
     13 HA           1.8300     0.8850    -0.5100 h1         1 NMK       0.034700
     14 HB2          1.5480    -0.8370     1.9780 hc         1 NMK       0.021700
     15 HB3          3.0590    -0.0890     1.4440 hc         1 NMK       0.021700
     16 HG2          0.4940     1.3960     2.1260 hc         1 NMK       0.029200
     17 HG3          2.0060     2.1440     1.5930 hc         1 NMK       0.029200
     18 HD2          1.6510     0.4690     4.1050 hc         1 NMK       0.030700
     19 HD3          3.1630     1.2170     3.5720 hc         1 NMK       0.030700
     20 HE2          0.5980     2.7010     4.2550 hx         1 NMK       0.083200
     21 HE3          2.1100     3.4500     3.7200 hx         1 NMK       0.083200
     22 HZ1          1.7700     1.8380     6.1350 hn         1 NMK       0.217800
     23 HZ3          1.9030     3.4660     6.0890 hn         1 NMK       0.217800
     24 HM1         -1.6090     0.5410    -1.2280 h1         1 NMK      -0.006967
     25 HM2         -0.1440     0.0500    -2.0900 h1         1 NMK      -0.006967
     26 HM3         -0.2170     1.6300    -1.2980 h1         1 NMK      -0.006967
     27 HZ2          3.1660     2.5300     5.6410 hn         1 NMK       0.217800
@<TRIPOS>BOND
     1     1     2 1   
     2     1    10 1   
     3     1    12 1   
     4     2     3 1   
     5     2     8 1   
     6     2    13 1   
     7     3     4 1   
     8     3    14 1   
     9     3    15 1   
    10     4     5 1   
    11     4    16 1   
    12     4    17 1   
    13     5     6 1   
    14     5    18 1   
    15     5    19 1   
    16     6     7 1   
    17     6    20 1   
    18     6    21 1   
    19     7    22 1   
    20     7    23 1   
    21     7    27 1   
    22     8     9 1   
    23     8    11 1   
    24    10    24 1   
    25    10    25 1   
    26    10    26 1   
@<TRIPOS>SUBSTRUCTURE
     1 NMK         1 TEMP              0 ****  ****    0 ROOT
