@<TRIPOS>MOLECULE
NML
   12    11     1     0     0
SMALL
bcc


@<TRIPOS>ATOM
      1 C1           0.0000     0.0000     0.0000 c3         1 NML      -0.090100
      2 C2           1.4930     0.0000     0.0000 c          1 NML       0.589100
      3 O2           2.0970     0.0000     1.0660 o          1 NML      -0.626100
      4 N3           2.0550     0.0010    -1.2620 ns         1 NML      -0.223900
      5 C3           3.4830     0.0030    -1.4910 c3         1 NML       0.087300
      6 HN3          1.4450     0.0010    -2.0550 hn         1 NML       0.172500
      7 H11         -0.3610    -0.0010     1.0210 hc         1 NML       0.024033
      8 H12         -0.3610    -0.8840    -0.5110 hc         1 NML       0.024033
      9 H13         -0.3610     0.8850    -0.5100 hc         1 NML       0.024033
     10 H31          3.6770     0.0040    -2.5570 h1         1 NML       0.006367
     11 H32          3.9210    -0.8810    -1.0440 h1         1 NML       0.006367
     12 H33          3.9190     0.8880    -1.0440 h1         1 NML       0.006367
@<TRIPOS>BOND
     1     1     2 1   
     2     1     7 1   
     3     1     8 1   
     4     1     9 1   
     5     2     3 2   
     6     2     4 1   
     7     4     5 1   
     8     4     6 1   
     9     5    10 1   
    10     5    11 1   
    11     5    12 1   
@<TRIPOS>SUBSTRUCTURE
     1 NML         1 TEMP              0 ****  ****    0 ROOT
