@<TRIPOS>MOLECULE
molecule
   37    38     1     0     0
SMALL
bcc


@<TRIPOS>ATOM
      1 O3P          0.0000     0.0000     0.0000 o          1 NMN      -0.538833
      2 P            1.4800     0.0000     0.0000 p5         1 NMN       1.133900
      3 O1P          2.0170     0.0000     1.5180 o          1 NMN      -0.538833
      4 O2P          2.0180     1.3140    -0.7590 o          1 NMN      -0.538833
      5 O5R          2.0170    -1.3140    -0.7580 os         1 NMN      -0.509200
      6 C5R          1.4150    -1.3180    -2.0540 c3         1 NMN       0.153400
      7 C4R          1.8850    -2.5490    -2.8320 c3         1 NMN       0.128100
      8 O4R          1.3820    -3.7550    -2.2180 os         1 NMN      -0.375600
      9 C3R          1.2850    -2.5500    -4.2550 c3         1 NMN       0.098100
     10 O3R          2.2290    -2.0380    -5.1980 oh         1 NMN      -0.567800
     11 C2R          0.9910    -4.0430    -4.5380 c3         1 NMN       0.084100
     12 O2R          1.7430    -4.4960    -5.6660 oh         1 NMN      -0.570800
     13 C1R          1.4470    -4.7630    -3.2490 c3         1 NMN       0.193800
     14 N1           0.5400    -5.8710    -2.9370 na         1 NMN       0.106900
     15 C2           0.9120    -7.1010    -3.2240 ca         1 NMN       0.011700
     16 C3           0.0710    -8.1800    -2.9470 ca         1 NMN      -0.262600
     17 C7           0.4850    -9.5610    -3.2750 c          1 NMN       0.375700
     18 O7           1.5650    -9.7630    -3.7960 o          1 NMN      -0.568100
     19 N7          -0.3330   -10.5930    -2.9970 nz         1 NMN      -0.633400
     20 C4          -1.1700    -7.9320    -2.3460 ca         1 NMN      -0.192000
     21 C5          -1.5090    -6.6220    -2.0600 ca         1 NMN      -0.064000
     22 C6          -0.6220    -5.6090    -2.3720 ca         1 NMN      -0.215300
     23 H5R1         1.7050    -0.4210    -2.5890 h1         1 NMN       0.064700
     24 H5R2         0.3370    -1.3450    -1.9520 h1         1 NMN       0.064700
     25 H4RC         2.9670    -2.5780    -2.8820 h1         1 NMN       0.095700
     26 H3RC         0.3680    -1.9750    -4.2780 h1         1 NMN       0.063700
     27 H3RO         1.8340    -1.3350    -5.6880 ho         1 NMN       0.412000
     28 H2RC        -0.0700    -4.1940    -4.6970 h1         1 NMN       0.055700
     29 H2RO         1.1650    -4.6150    -6.4010 ho         1 NMN       0.412000
     30 H1RC         2.4640    -5.1200    -3.3600 h2         1 NMN       0.112700
     31 HC2          1.8790    -7.2770    -3.6790 h4         1 NMN       0.199000
     32 HN71        -1.1960   -10.4770    -3.4910 hn         1 NMN       0.446133
     33 HN72         0.1010   -11.4490    -3.2820 hn         1 NMN       0.446133
     34 HC4         -1.8470    -8.7450    -2.1150 ha         1 NMN       0.108000
     35 HC5         -2.4610    -6.3920    -1.5950 ha         1 NMN       0.161000
     36 HC6         -0.8860    -4.5820    -2.1480 h4         1 NMN       0.202000
     37 H73         -0.5120   -10.6210    -2.0130 hn         1 NMN       0.446133
@<TRIPOS>BOND
     1     1     2 1
     2     2     3 1
     3     2     4 1
     4     2     5 1
     5     5     6 1
     6     6     7 1
     7     6    23 1
     8     6    24 1
     9     7     8 1
    10     7     9 1
    11     7    25 1
    12     8    13 1
    13     9    10 1
    14     9    11 1
    15     9    26 1
    16    10    27 1
    17    11    12 1
    18    11    13 1
    19    11    28 1
    20    12    29 1
    21    13    14 1
    22    13    30 1
    23    14    15 1
    24    14    22 2
    25    15    16 ar
    26    15    31 1
    27    16    17 1
    28    16    20 ar
    29    17    18 2
    30    17    19 1
    31    19    32 1
    32    19    33 1
    33    20    21 ar
    34    20    34 1
    35    21    22 ar
    36    21    35 1
    37    22    36 1
    38    37    19 1
@<TRIPOS>SUBSTRUCTURE
     1 NMN         1 TEMP              0 ****  ****    0 ROOT
