@<TRIPOS>MOLECULE
NMP
   60    60     1     0     0
SMALL
bcc


@<TRIPOS>ATOM
      1 S27          0.0000     0.0000     0.0000 sh         1 NMP      -0.402900
      2 C26          1.8140     0.0000     0.0000 c3         1 NMP       0.105700
      3 C25          2.3240     0.0000     1.4430 c3         1 NMP      -0.020400
      4 C24          3.8530    -0.0020     1.4440 c3         1 NMP       0.045000
      5 N23          4.3410    -0.0020     2.8240 ns         1 NMP      -0.172900
      6 C20          5.6660    -0.0020     3.0710 c          1 NMP       0.563100
      7 O21          6.4540    -0.0020     2.1500 o          1 NMP      -0.654100
      8 C19          6.1680    -0.0030     4.4920 c3         1 NMP      -0.064300
      9 C22          5.6580     1.2460     5.2130 c3         1 NMP      -0.009100
     10 N18          7.6330    -0.0030     4.4920 ns         1 NMP      -0.138900
     11 C16          8.3060    -0.5880     5.5040 c          1 NMP       0.560100
     12 O17          7.7000    -1.1120     6.4120 o          1 NMP      -0.666100
     13 C15          9.8130    -0.5870     5.5040 c3         1 NMP      -0.033000
     14 N14         10.3000    -1.2780     6.7000 ns         1 NMP      -0.125900
     15 C6          11.6260    -1.4020     6.9140 c          1 NMP       0.542100
     16 O7          12.4130    -0.9410     6.1160 o          1 NMP      -0.687100
     17 C5          12.1270    -2.1130     8.1440 c3         1 NMP       0.074500
     18 N4          13.4180    -1.5460     8.5430 nu         1 NMP      -0.477200
     19 C2          14.4840    -1.5880     7.6780 c2         1 NMP       0.235100
     20 N3          15.6950    -1.0560     8.0520 nz         1 NMP       0.198400
     21 N1          14.3470    -2.1320     6.5020 n2         1 NMP      -0.599100
     22 C8          12.2970    -3.6020     7.8390 c3         1 NMP      -0.085700
     23 C9          12.8070    -4.3230     9.0880 c3         1 NMP      -0.023900
     24 C10         12.9760    -5.8130     8.7830 c3         1 NMP      -0.019400
     25 C11         11.6290    -6.4040     8.3660 c3         1 NMP      -0.026400
     26 C12         11.1190    -5.6830     7.1170 c3         1 NMP      -0.019400
     27 C13         10.9500    -4.1930     7.4210 c3         1 NMP      -0.023900
     28 H27         -0.4430     0.0250    -1.2510 hs         1 NMP       0.196800
     29 H261         2.1750     0.8850    -0.5110 h1         1 NMP       0.034200
     30 H262         2.1750    -0.8850    -0.5110 h1         1 NMP       0.034200
     31 H251         1.9630     0.8850     1.9540 hc         1 NMP       0.033200
     32 H252         1.9610    -0.8840     1.9540 hc         1 NMP       0.033200
     33 H241         4.2140    -0.8870     0.9330 h1         1 NMP       0.031200
     34 H242         4.2160     0.8820     0.9330 h1         1 NMP       0.031200
     35 H23          3.6910    -0.0350     3.5850 hn         1 NMP       0.181500
     36 H19          5.8070    -0.8880     5.0030 h1         1 NMP       0.071700
     37 H221         5.0250     0.9520     6.0420 hc         1 NMP       0.017700
     38 H222         5.0880     1.8550     4.5220 hc         1 NMP       0.017700
     39 H223         6.5000     1.8170     5.5870 hc         1 NMP       0.017700
     40 H18          8.1340     0.3910     3.7200 hn         1 NMP       0.201500
     41 H151        10.1740    -1.0970     4.6190 h1         1 NMP       0.049200
     42 H152        10.1730     0.4340     5.5050 h1         1 NMP       0.049200
     43 H14          9.6500    -1.6130     7.3830 hn         1 NMP       0.213500
     44 H5          11.4130    -1.9880     8.9490 h1         1 NMP       0.070700
     45 H4          13.5060    -1.0770     9.4220 hn         1 NMP       0.296800
     46 H31         15.5700    -0.1020     8.3290 hn         1 NMP       0.218133
     47 H32         16.0670    -1.5790     8.8200 hn         1 NMP       0.218133
     48 H1          13.4670    -2.5190     6.2260 hn         1 NMP       0.425400
     49 H8          13.0110    -3.7310     7.0340 hc         1 NMP       0.046700
     50 H91         13.7620    -3.9050     9.3800 hc         1 NMP       0.018450
     51 H92         12.0910    -4.1990     9.8920 hc         1 NMP       0.018450
     52 H101        13.6890    -5.9360     7.9760 hc         1 NMP       0.022950
     53 H102        13.3340    -6.3230     9.6690 hc         1 NMP       0.022950
     54 H111        11.7500    -7.4580     8.1470 hc         1 NMP       0.026200
     55 H112        10.9150    -6.2770     9.1710 hc         1 NMP       0.026200
     56 H121        10.1630    -6.1010     6.8250 hc         1 NMP       0.022950
     57 H122        11.8340    -5.8070     6.3130 hc         1 NMP       0.022950
     58 H131        10.2360    -4.0690     8.2270 hc         1 NMP       0.018450
     59 H132        10.5930    -3.6840     6.5340 hc         1 NMP       0.018450
     60 H33         16.2890    -0.9800     7.2500 hn         1 NMP       0.218133
@<TRIPOS>BOND
     1     1     2 1   
     2     1    28 1   
     3     2     3 1   
     4     2    29 1   
     5     2    30 1   
     6     3     4 1   
     7     3    31 1   
     8     3    32 1   
     9     4     5 1   
    10     4    33 1   
    11     4    34 1   
    12     5     6 1   
    13     5    35 1   
    14     6     7 2   
    15     6     8 1   
    16     8     9 1   
    17     8    10 1   
    18     8    36 1   
    19     9    37 1   
    20     9    38 1   
    21     9    39 1   
    22    10    11 1   
    23    10    40 1   
    24    11    12 2   
    25    11    13 1   
    26    13    14 1   
    27    13    41 1   
    28    13    42 1   
    29    14    15 1   
    30    14    43 1   
    31    15    16 2   
    32    15    17 1   
    33    17    18 1   
    34    17    22 1   
    35    17    44 1   
    36    18    19 1   
    37    18    45 1   
    38    19    20 1   
    39    19    21 2   
    40    20    46 1   
    41    20    47 1   
    42    20    60 1   
    43    21    48 1   
    44    22    23 1   
    45    22    27 1   
    46    22    49 1   
    47    23    24 1   
    48    23    50 1   
    49    23    51 1   
    50    24    25 1   
    51    24    52 1   
    52    24    53 1   
    53    25    26 1   
    54    25    54 1   
    55    25    55 1   
    56    26    27 1   
    57    26    56 1   
    58    26    57 1   
    59    27    58 1   
    60    27    59 1   
@<TRIPOS>SUBSTRUCTURE
     1 NMP         1 TEMP              0 ****  ****    0 ROOT
