@<TRIPOS>MOLECULE
molecule
   60    60     1     0     0
SMALL
bcc


@<TRIPOS>ATOM
      1 S27          0.0000     0.0000     0.0000 sh         1 NMP      -0.421900
      2 C26          1.8140     0.0000     0.0000 c3         1 NMP       0.043700
      3 C25          2.3240     0.0000     1.4430 c3         1 NMP      -0.085400
      4 C24          3.8530    -0.0020     1.4440 c3         1 NMP       0.113000
      5 N23          4.3410    -0.0020     2.8240 ns         1 NMP      -0.576900
      6 C20          5.6660    -0.0020     3.0710 c          1 NMP       0.651100
      7 O21          6.4540    -0.0020     2.1500 o          1 NMP      -0.612100
      8 C19          6.1680    -0.0030     4.4920 c3         1 NMP       0.038700
      9 C22          5.6580     1.2460     5.2130 c3         1 NMP      -0.109100
     10 N18          7.6330    -0.0030     4.4920 ns         1 NMP      -0.556900
     11 C16          8.3060    -0.5880     5.5040 c          1 NMP       0.652100
     12 O17          7.7000    -1.1120     6.4120 o          1 NMP      -0.621100
     13 C15          9.8130    -0.5870     5.5040 c3         1 NMP       0.036000
     14 N14         10.3000    -1.2780     6.7000 ns         1 NMP      -0.562900
     15 C6          11.6260    -1.4020     6.9140 c          1 NMP       0.650100
     16 O7          12.4130    -0.9410     6.1160 o          1 NMP      -0.611100
     17 C5          12.1270    -2.1130     8.1440 c3         1 NMP       0.192500
     18 N4          13.4180    -1.5460     8.5430 nu         1 NMP      -0.853200
     19 C2          14.4840    -1.5880     7.6780 c2         1 NMP       0.682100
     20 N3          15.6950    -1.0560     8.0520 nz         1 NMP      -0.805600
     21 N1          14.3470    -2.1320     6.5020 n2         1 NMP      -0.715100
     22 C8          12.2970    -3.6020     7.8390 c3         1 NMP      -0.088700
     23 C9          12.8070    -4.3230     9.0880 c3         1 NMP      -0.076900
     24 C10         12.9760    -5.8130     8.7830 c3         1 NMP      -0.076400
     25 C11         11.6290    -6.4040     8.3660 c3         1 NMP      -0.081400
     26 C12         11.1190    -5.6830     7.1170 c3         1 NMP      -0.076400
     27 C13         10.9500    -4.1930     7.4210 c3         1 NMP      -0.076900
     28 H27         -0.4430     0.0550    -1.2500 hs         1 NMP       0.227800
     29 H261         2.1750    -0.8850    -0.5110 h1         1 NMP       0.061200
     30 H262         2.1750     0.8850    -0.5110 h1         1 NMP       0.061200
     31 H251         1.9630     0.8850     1.9540 hc         1 NMP       0.062700
     32 H252         1.9610    -0.8840     1.9540 hc         1 NMP       0.062700
     33 H241         4.2140    -0.8870     0.9330 h1         1 NMP       0.058200
     34 H242         4.2160     0.8820     0.9330 h1         1 NMP       0.058200
     35 H23          3.6910    -0.0330     3.5850 hn         1 NMP       0.321500
     36 H19          5.8070    -0.8880     5.0030 h1         1 NMP       0.099700
     37 H221         5.1120     1.8690     4.5150 hc         1 NMP       0.052033
     38 H222         5.0020     0.9530     6.0240 hc         1 NMP       0.052033
     39 H223         6.4980     1.8020     5.6120 hc         1 NMP       0.052033
     40 H18          8.1340     0.4020     3.7260 hn         1 NMP       0.341500
     41 H151        10.1730     0.4340     5.5050 h1         1 NMP       0.078200
     42 H152        10.1740    -1.0970     4.6190 h1         1 NMP       0.078200
     43 H14          9.6500    -1.6180     7.3810 hn         1 NMP       0.346500
     44 H5          11.4130    -1.9880     8.9490 h1         1 NMP       0.092700
     45 H4          13.5010    -1.0590     9.4130 hn         1 NMP       0.452800
     46 H31         16.4070    -1.7540     7.9680 hn         1 NMP       0.464800
     47 H32         15.6440    -0.7450     9.0020 hn         1 NMP       0.464800
     48 H1          15.1240    -2.1620     5.8710 hn         1 NMP       0.431400
     49 H8          13.0110    -3.7310     7.0340 hc         1 NMP       0.090700
     50 H91         13.7620    -3.9050     9.3800 hc         1 NMP       0.042450
     51 H92         12.0910    -4.1990     9.8920 hc         1 NMP       0.042450
     52 H101        13.6890    -5.9360     7.9760 hc         1 NMP       0.050200
     53 H102        13.3340    -6.3230     9.6690 hc         1 NMP       0.050200
     54 H111        10.9150    -6.2770     9.1710 hc         1 NMP       0.052700
     55 H112        11.7500    -7.4580     8.1470 hc         1 NMP       0.052700
     56 H121        10.1630    -6.1010     6.8250 hc         1 NMP       0.050200
     57 H122        11.8340    -5.8070     6.3130 hc         1 NMP       0.050200
     58 H131        10.2360    -4.0690     8.2270 hc         1 NMP       0.042450
     59 H132        10.5930    -3.6840     6.5340 hc         1 NMP       0.042450
     60 H33         15.8580    -0.2070     7.5470 hn         1 NMP       0.464800
@<TRIPOS>BOND
     1     1     2 1
     2     1    28 1
     3     2     3 1
     4     2    29 1
     5     2    30 1
     6     3     4 1
     7     3    31 1
     8     3    32 1
     9     4     5 1
    10     4    33 1
    11     4    34 1
    12     5     6 1
    13     5    35 1
    14     6     7 2
    15     6     8 1
    16     8     9 1
    17     8    10 1
    18     8    36 1
    19     9    37 1
    20     9    38 1
    21     9    39 1
    22    10    11 1
    23    10    40 1
    24    11    12 2
    25    11    13 1
    26    13    14 1
    27    13    41 1
    28    13    42 1
    29    14    15 1
    30    14    43 1
    31    15    16 2
    32    15    17 1
    33    17    18 1
    34    17    22 1
    35    17    44 1
    36    18    19 1
    37    18    45 1
    38    19    20 1
    39    19    21 2
    40    20    46 1
    41    20    47 1
    42    21    48 1
    43    22    23 1
    44    22    27 1
    45    22    49 1
    46    23    24 1
    47    23    50 1
    48    23    51 1
    49    24    25 1
    50    24    52 1
    51    24    53 1
    52    25    26 1
    53    25    54 1
    54    25    55 1
    55    26    27 1
    56    26    56 1
    57    26    57 1
    58    27    58 1
    59    27    59 1
    60    60    20 1
@<TRIPOS>SUBSTRUCTURE
     1 NMP         1 TEMP              0 ****  ****    0 ROOT
