@<TRIPOS>MOLECULE
NMU
   12    11     1     0     0
SMALL
bcc


@<TRIPOS>ATOM
      1 C1           0.0000     0.0000     0.0000 c          1 NMU       0.275100
      2 O2           1.2160     0.0000     0.0000 o          1 NMU      -0.521100
      3 N3          -0.6730     0.0000     1.1680 nz         1 NMU       0.222600
      4 N4          -0.6730     0.0000    -1.1670 ns         1 NMU      -0.097900
      5 C5           0.0580     0.0000    -2.4360 c3         1 NMU       0.080300
      6 HN31        -1.2490    -0.8170     1.2210 hn         1 NMU       0.243800
      7 HN32        -1.2490     0.8170     1.2210 hn         1 NMU       0.243800
      8 HN4         -1.6740     0.0000    -1.1670 hn         1 NMU       0.180500
      9 H51         -0.6460     0.0000    -3.2590 h1         1 NMU       0.042367
     10 H52          0.6810     0.8850    -2.4940 h1         1 NMU       0.042367
     11 H53          0.6810    -0.8850    -2.4940 h1         1 NMU       0.042367
     12 H33         -0.0260     0.0820     1.9260 hn         1 NMU       0.243800
@<TRIPOS>BOND
     1     1     2 2   
     2     1     3 1   
     3     1     4 1   
     4     3     6 1   
     5     3     7 1   
     6     3    12 1   
     7     4     5 1   
     8     4     8 1   
     9     5     9 1   
    10     5    10 1   
    11     5    11 1   
@<TRIPOS>SUBSTRUCTURE
     1 NMU         1 TEMP              0 ****  ****    0 ROOT
