@<TRIPOS>MOLECULE
NN1
   56    59     1     0     0
SMALL
bcc


@<TRIPOS>ATOM
      1 C4           0.0000     0.0000     0.0000 ca         1 NN1       0.113100
      2 C5          -9.1690     1.7780     0.6110 c3         1 NN1      -0.004300
      3 C6           1.3930     0.0000     0.0000 ca         1 NN1      -0.038600
      4 C7          -0.7040    -0.0000     1.2010 ca         1 NN1      -0.120000
      5 C8          -0.0100    -0.0000     2.4110 ca         1 NN1      -0.110000
      6 C10          1.3840    -0.0000     2.4160 ca         1 NN1       0.100900
      7 C15         -4.7560     0.9650    -0.9050 c3         1 NN1       0.012700
      8 C17         -3.9080     3.1950    -0.0510 c3         1 NN1      -0.019900
      9 C20         -5.4920     1.7020    -2.0450 c3         1 NN1      -0.045700
     10 C21         -6.9110     2.0580    -1.5600 c3         1 NN1       0.009100
     11 C22         -6.8370     2.9720    -0.3190 c3         1 NN1      -0.044200
     12 C24         -6.0640     2.2470     0.8020 c3         1 NN1       0.009100
     13 C1          -1.6690    -1.3130    -2.9010 c3         1 NN1      -0.016600
     14 C2          -1.5820    -1.1050    -1.3910 c3         1 NN1       0.085800
     15 C3          -0.9910    -2.3300    -0.6950 c3         1 NN1      -0.016600
     16 O3          -0.7060     0.0000    -1.1730 os         1 NN1      -0.325900
     17 C14         -2.9480    -0.7250    -0.8060 c          1 NN1       0.565100
     18 O1          -3.5040    -1.4120     0.0510 o          1 NN1      -0.628100
     19 N4          -3.4790     0.4430    -1.3300 ns         1 NN1      -0.186900
     20 C16         -4.6420     1.8930     0.3250 c3         1 NN1      -0.045700
     21 C18         -4.6620     3.9240    -1.1760 c3         1 NN1      -0.038700
     22 C19         -4.7510     3.0060    -2.4060 c3         1 NN1      -0.019900
     23 C23         -6.0810     4.2630    -0.6940 c3         1 NN1       0.017600
     24 S1          -8.4790     3.3700     0.2370 s6         1 NN1       0.770000
     25 O2          -9.2060     3.9170    -0.8900 o          1 NN1      -0.574800
     26 O4          -8.3570     4.1060     1.4790 o          1 NN1      -0.574800
     27 C9           2.0860     0.0000     1.2100 ca         1 NN1      -0.120000
     28 Cl1          2.2860    -0.0020    -1.4760 cl         1 NN1       0.007600
     29 F1           2.0510     0.0000     3.5770 f          1 NN1      -0.118900
     30 H51         -8.5770     1.3000     1.3830 h1         1 NN1       0.069367
     31 H52        -10.1870     1.8990     0.9600 h1         1 NN1       0.069367
     32 H53         -9.1630     1.1630    -0.2800 h1         1 NN1       0.069367
     33 H7          -1.7870    -0.0000     1.1960 ha         1 NN1       0.136000
     34 H8          -0.5550    -0.0000     3.3480 ha         1 NN1       0.124000
     35 H15         -5.3690     0.1200    -0.6170 h1         1 NN1       0.047700
     36 H171        -3.8520     3.8380     0.8190 hc         1 NN1       0.019700
     37 H172        -2.9050     2.9570    -0.3860 hc         1 NN1       0.019700
     38 H20         -5.5520     1.0620    -2.9160 hc         1 NN1       0.036700
     39 H211        -7.4420     2.5710    -2.3530 hc         1 NN1       0.030700
     40 H212        -7.4400     1.1480    -1.3040 hc         1 NN1       0.030700
     41 H241        -6.0000     2.8940     1.6690 hc         1 NN1       0.030700
     42 H242        -6.5890     1.3390     1.0700 hc         1 NN1       0.030700
     43 H11         -2.6210    -1.7670    -3.1490 hc         1 NN1       0.023867
     44 H12         -0.8640    -1.9640    -3.2220 hc         1 NN1       0.023867
     45 H13         -1.5830    -0.3580    -3.4030 hc         1 NN1       0.023867
     46 H31         -1.1060    -2.2270     0.3770 hc         1 NN1       0.023867
     47 H32          0.0610    -2.4110    -0.9390 hc         1 NN1       0.023867
     48 H33         -1.5100    -3.2200    -1.0300 hc         1 NN1       0.023867
     49 HN4         -2.9610     0.9410    -2.0270 hn         1 NN1       0.190500
     50 H16         -4.1060     1.3850     1.1180 hc         1 NN1       0.036700
     51 H18         -4.1370     4.8350    -1.4370 hc         1 NN1       0.033700
     52 H191        -3.7520     2.7670    -2.7490 hc         1 NN1       0.019700
     53 H192        -5.2890     3.5170    -3.1960 hc         1 NN1       0.019700
     54 H231        -6.6160     4.7750    -1.4850 hc         1 NN1       0.034700
     55 H232        -6.0210     4.9080     0.1740 hc         1 NN1       0.034700
     56 H9           3.1700    -0.0000     1.2140 ha         1 NN1       0.132000
@<TRIPOS>BOND
     1     1     3 ar  
     2     1     4 ar  
     3     1    16 1   
     4     2    24 1   
     5     2    30 1   
     6     2    31 1   
     7     2    32 1   
     8     3    27 ar  
     9     3    28 1   
    10     4     5 ar  
    11     4    33 1   
    12     5     6 ar  
    13     5    34 1   
    14     6    27 ar  
    15     6    29 1   
    16     7     9 1   
    17     7    19 1   
    18     7    20 1   
    19     7    35 1   
    20     8    20 1   
    21     8    21 1   
    22     8    36 1   
    23     8    37 1   
    24     9    10 1   
    25     9    22 1   
    26     9    38 1   
    27    10    11 1   
    28    10    39 1   
    29    10    40 1   
    30    11    12 1   
    31    11    23 1   
    32    11    24 1   
    33    12    20 1   
    34    12    41 1   
    35    12    42 1   
    36    13    14 1   
    37    13    43 1   
    38    13    44 1   
    39    13    45 1   
    40    14    15 1   
    41    14    16 1   
    42    14    17 1   
    43    15    46 1   
    44    15    47 1   
    45    15    48 1   
    46    17    18 2   
    47    17    19 1   
    48    19    49 1   
    49    20    50 1   
    50    21    22 1   
    51    21    23 1   
    52    21    51 1   
    53    22    52 1   
    54    22    53 1   
    55    23    54 1   
    56    23    55 1   
    57    24    25 2   
    58    24    26 2   
    59    27    56 1   
@<TRIPOS>SUBSTRUCTURE
     1 NN1         1 TEMP              0 ****  ****    0 ROOT
