@<TRIPOS>MOLECULE
NN2
   48    51     1     0     0
SMALL
bcc


@<TRIPOS>ATOM
      1 C4          0.0010    0.2490    0.0050 c2        1 NN2     -0.982000
      2 C5          1.3670   -0.1070    0.1220 c2        1 NN2      0.109000
      3 C6          1.9150   -0.3460    1.3780 c2        1 NN2     -0.200000
      4 C7          1.0850   -0.2350    2.5170 c2        1 NN2     -0.080000
      5 C8         -0.2480    0.1020    2.4010 c2        1 NN2     -0.126000
      6 C9         -0.8090    0.3530    1.1370 c1        1 NN2     -0.254000
      7 N3          2.1590   -0.2290   -1.0520 n3        1 NN2     -0.187000
      8 C15         3.6570   -1.6200   -7.9870 c2        1 NN2      0.072000
      9 C20         2.8250   -1.6180   -6.9060 c2        1 NN2     -0.193000
     10 C19         3.1260   -0.8340   -5.7400 c2        1 NN2     -0.134000
     11 C22         2.2150   -0.7570   -4.6230 c2        1 NN2      0.218000
     12 O23         0.9650   -1.2980   -4.6660 oh        1 NN2     -0.227000
     13 C16         4.8770   -0.7640   -8.0270 c3        1 NN2     -0.216000
     14 C17         5.1730   -0.0000   -6.8420 c1        1 NN2     -0.033000
     15 C18         4.3460   -0.1440   -5.6590 c2        1 NN2      0.043000
     16 N14         4.7510    0.4740   -4.4920 n         1 NN2     -0.185000
     17 C24         6.0530    1.1290   -4.4180 c3        1 NN2     -0.042000
     18 C25         7.1620    0.2400   -3.8520 c3        1 NN2     -0.172000
     19 C26         8.4610    1.0170   -3.8260 c3        1 NN2     -0.130000
     20 C30         9.5950   -1.0060   -2.8660 c2        1 NN2     -0.221000
     21 C29         9.6200    0.2440   -3.3200 c2        1 NN2     -0.161000
     22 C27         3.9460    0.4390   -3.3320 c2        1 NN2      0.344000
     23 O28         4.4110    0.8930   -2.2670 o         1 NN2     -0.352000
     24 C1          2.5980   -0.1260   -3.4540 c2        1 NN2     -0.272000
     25 C2          1.6730    0.0230   -2.2960 c2        1 NN2      0.348000
     26 N11         0.3850    0.3770   -2.4950 n3        1 NN2     -0.668000
     27 S10        -0.9080    0.6020   -1.2600 s6        1 NN2      2.933000
     28 O13        -1.8570   -0.3320   -1.6600 o         1 NN2     -0.918000
     29 O12        -1.2700    1.9310   -1.4500 o         1 NN2     -0.918000
     30 H6          3.1480   -0.3530   -0.9420 hn        1 NN2      0.279000
     31 H7          2.9720   -0.6160    1.5070 ha        1 NN2      0.124000
     32 H8          1.5400   -0.4280    3.5020 ha        1 NN2      0.118000
     33 H9         -0.8870    0.1830    3.2920 ha        1 NN2      0.134000
     34 H20         1.9320   -2.2610   -6.9140 ha        1 NN2      0.153000
     35 HO23        0.7770   -1.6470   -5.5520 ho        1 NN2      0.254000
     36 H16         5.7930   -1.3910   -8.2690 hc        1 NN2      0.197500
     37 H17         4.7980   -0.0260   -8.8870 hc        1 NN2      0.197500
     38 H241        6.3390    1.4710   -5.4550 h1        1 NN2      0.132000
     39 H242        5.9330    2.0320   -3.7510 h1        1 NN2      0.132000
     40 H251        8.6990    1.3780   -4.8650 hc        1 NN2      0.094000
     41 H252        7.2810   -0.6780   -4.4830 hc        1 NN2      0.094500
     42 H26         6.8920   -0.0860   -2.8130 hc        1 NN2      0.094500
     43 H301        8.3340    1.9310   -3.1820 hc        1 NN2      0.094000
     44 H302       10.5010   -1.5100   -2.5030 ha        1 NN2      0.113000
     45 H291        8.6820   -1.6140   -2.8180 ha        1 NN2      0.113000
     46 H292       10.5680    0.8110   -3.3410 ha        1 NN2      0.122000
     47 HN11        0.1210    0.4720   -3.4520 hn        1 NN2      0.244000
     48 F21         3.4190   -2.4000   -9.0620 f         1 NN2     -0.084000
@<TRIPOS>BOND
     1    1    2 1
     2    1    6 1
     3    1   27 1
     4    2    3 1
     5    2    7 1
     6    3    4 1
     7    3   31 1
     8    4    5 1
     9    4   32 1
    10    5    6 1
    11    5   33 1
    12    7   25 1
    13    7   30 1
    14    8    9 1
    15    8   13 1
    16    8   48 1
    17    9   10 1
    18    9   34 1
    19   10   11 1
    20   10   15 1
    21   11   12 1
    22   11   24 1
    23   12   35 1
    24   13   14 1
    25   13   36 1
    26   13   37 1
    27   14   15 1
    28   15   16 1
    29   16   17 1
    30   16   22 1
    31   17   18 1
    32   17   38 1
    33   17   39 1
    34   18   19 1
    35   18   41 1
    36   18   42 1
    37   19   21 1
    38   19   40 1
    39   19   43 1
    40   20   21 1
    41   20   44 1
    42   20   45 1
    43   21   46 1
    44   22   23 1
    45   22   24 1
    46   24   25 1
    47   25   26 1
    48   26   27 1
    49   26   47 1
    50   27   28 1
    51   27   29 1
@<TRIPOS>SUBSTRUCTURE
     1 NN2         1 TEMP              0 ****  ****    0 ROOT
