@<TRIPOS>MOLECULE
molecule
   53    55     1     0     0
SMALL
bcc


@<TRIPOS>ATOM
      1 C4           0.0000     0.0000     0.0000 c3         1 NN3      -0.073700
      2 C5           1.5310     0.0000     0.0000 c3         1 NN3      -0.084900
      3 C6           2.0400     0.0000     1.4430 c3         1 NN3      -0.062400
      4 C11          1.4530    -3.7900     3.3490 cc         1 NN3      -0.050400
      5 C7          -0.5090    -0.0000    -1.4430 c3         1 NN3      -0.083100
      6 C8           2.0330    -2.4800     1.4530 c          1 NN3       0.699100
      7 C10          0.1070    -4.1300     3.4900 cd         1 NN3       0.060300
      8 C12          2.1910    -3.5690     4.4850 cc         1 NN3      -0.152000
      9 C13          1.5750    -3.6990     5.7160 cd         1 NN3      -0.048100
     10 C3          -0.5100    -1.2500     0.7210 c3         1 NN3      -0.084900
     11 O27          2.4390    -2.3980     0.3130 o          1 NN3      -0.637100
     12 C1           1.5310    -1.2500     2.1640 c3         1 NN3      -0.140700
     13 C2           0.0010    -1.2500     2.1640 c3         1 NN3      -0.062400
     14 N14          2.0320    -3.6700     2.0850 n          1 NN3      -0.354000
     15 C22          2.6400    -4.8400     1.4440 c3         1 NN3       0.134700
     16 C24          1.9770    -5.0790     0.0860 c3         1 NN3      -0.105600
     17 C23          4.1360    -4.5920     1.2440 c3         1 NN3      -0.105600
     18 C15         -0.8510    -4.4020     2.4850 c          1 NN3       0.893200
     19 O26         -0.5630    -4.2500     1.3120 o          1 NN3      -0.809300
     20 O25         -2.0840    -4.8310     2.8260 o          1 NN3      -0.809300
     21 S9          -0.0940    -4.1430     5.2630 ss         1 NN3      -0.148800
     22 C16          2.1500    -3.5150     7.0650 ca         1 NN3       0.040000
     23 C21          1.4070    -2.8850     8.0640 ca         1 NN3      -0.122500
     24 C20          1.9500    -2.7170     9.3210 ca         1 NN3      -0.132000
     25 C19          3.2290    -3.1710     9.5910 ca         1 NN3      -0.147000
     26 C18          3.9720    -3.7960     8.6050 ca         1 NN3      -0.132000
     27 C17          3.4380    -3.9750     7.3460 ca         1 NN3      -0.122500
     28 H4          -0.3590     0.8830     0.5150 hc         1 NN3       0.026700
     29 H51          1.8900    -0.8860    -0.5090 hc         1 NN3       0.063200
     30 H52          1.8910     0.8860    -0.5090 hc         1 NN3       0.063200
     31 H61          3.1230    -0.0020     1.4420 hc         1 NN3       0.039950
     32 H62          1.6750     0.8830     1.9530 hc         1 NN3       0.039950
     33 H71         -0.2910    -0.9560    -1.9030 hc         1 NN3       0.026367
     34 H72         -1.5800     0.1670    -1.4480 hc         1 NN3       0.026367
     35 H73         -0.0180     0.7890    -1.9990 hc         1 NN3       0.026367
     36 H12          3.2390    -3.3010     4.4190 ha         1 NN3       0.132000
     37 H31         -1.5930    -1.2480     0.7230 hc         1 NN3       0.063200
     38 H32         -0.1460    -2.1340     0.2100 hc         1 NN3       0.063200
     39 H1           1.8890    -1.2460     3.1860 hc         1 NN3       0.055700
     40 H21A        -0.3590    -2.1360     2.6720 hc         1 NN3       0.039950
     41 H22A        -0.3590    -0.3640     2.6730 hc         1 NN3       0.039950
     42 H22          2.4980    -5.7100     2.0730 h1         1 NN3       0.054700
     43 H241         1.6380    -6.1060     0.0260 hc         1 NN3       0.041533
     44 H242         2.6930    -4.8880    -0.7040 hc         1 NN3       0.041533
     45 H243         1.1300    -4.4120    -0.0250 hc         1 NN3       0.041533
     46 H231         4.2810    -3.9030     0.4210 hc         1 NN3       0.041533
     47 H232         4.6300    -5.5300     1.0210 hc         1 NN3       0.041533
     48 H233         4.5560    -4.1690     2.1480 hc         1 NN3       0.041533
     49 H21          0.4060    -2.5290     7.8530 ha         1 NN3       0.138000
     50 H20          1.3740    -2.2290    10.0980 ha         1 NN3       0.120500
     51 H19          3.6510    -3.0350    10.5790 ha         1 NN3       0.116000
     52 H18          4.9710    -4.1500     8.8240 ha         1 NN3       0.120500
     53 H17          4.0200    -4.4640     6.5740 ha         1 NN3       0.138000
@<TRIPOS>BOND
     1     1     2 1
     2     1     5 1
     3     1    10 1
     4     1    28 1
     5     2     3 1
     6     2    29 1
     7     2    30 1
     8     3    12 1
     9     3    31 1
    10     3    32 1
    11     4     7 2
    12     4     8 1
    13     4    14 1
    14     5    33 1
    15     5    34 1
    16     5    35 1
    17     6    11 2
    18     6    12 1
    19     6    14 1
    20     7    18 1
    21     7    21 1
    22     8     9 2
    23     8    36 1
    24     9    21 1
    25     9    22 1
    26    10    13 1
    27    10    37 1
    28    10    38 1
    29    12    13 1
    30    12    39 1
    31    13    40 1
    32    13    41 1
    33    14    15 1
    34    15    16 1
    35    15    17 1
    36    15    42 1
    37    16    43 1
    38    16    44 1
    39    16    45 1
    40    17    46 1
    41    17    47 1
    42    17    48 1
    43    18    19 1
    44    18    20 1
    45    22    23 ar
    46    22    27 ar
    47    23    24 ar
    48    23    49 1
    49    24    25 ar
    50    24    50 1
    51    25    26 ar
    52    25    51 1
    53    26    27 ar
    54    26    52 1
    55    27    53 1
@<TRIPOS>SUBSTRUCTURE
     1 NN3         1 TEMP              0 ****  ****    0 ROOT
