@<TRIPOS>MOLECULE
molecule
   59    62     1     0     0
SMALL
bcc


@<TRIPOS>ATOM
      1 C4           0.0000     0.0000     0.0000 c3         1 NN4      -0.077400
      2 C5           1.5410     0.0000     0.0000 c3         1 NN4      -0.072700
      3 C6           2.0350     0.0000     1.4590 c3         1 NN4      -0.059900
      4 C7           2.0230    -2.5180     1.4680 c3         1 NN4      -0.059900
      5 C8          -0.0130    -2.5090     0.0090 c3         1 NN4      -0.077400
      6 C10          1.5290    -2.5240     0.0090 c3         1 NN4      -0.072700
      7 C15          2.6660    -1.8780    -3.0270 c          1 NN4       0.647100
      8 C20          0.8370    -2.4540    -4.6680 c3         1 NN4      -0.093600
      9 C21          3.1230     0.4020    -4.6590 ca         1 NN4       0.053100
     10 C22          3.9600     0.5920    -5.7550 ca         1 NN4      -0.103000
     11 C24          5.3710     2.0240    -4.4150 ca         1 NN4       0.147100
     12 C26          3.4020     1.0160    -3.4430 ca         1 NN4      -0.103000
     13 C28          6.7010     3.4200    -3.0240 c3         1 NN4       0.128700
     14 O17          3.7150    -2.4430    -2.7170 o          1 NN4      -0.572100
     15 N11          1.8080    -1.2800    -2.1170 ns         1 NN4      -0.588900
     16 C9           2.0800    -1.2680    -0.7000 c3         1 NN4       0.119700
     17 C3          -0.5310    -1.2500     0.7230 c3         1 NN4      -0.056700
     18 C2          -0.0240    -1.2470     2.1760 c3         1 NN4      -0.071400
     19 C1           1.5180    -1.2540     2.1940 c3         1 NN4      -0.161000
     20 C12          2.0160    -1.2640     3.6100 c          1 NN4       0.498100
     21 O14          2.7190    -2.1720     4.0490 o          1 NN4      -0.381100
     22 N13          1.5970    -0.1870     4.3540 nz         1 NN4      -0.691400
     23 C16          2.1950    -1.7810    -4.4830 c3         1 NN4       0.086800
     24 C19          3.2320    -2.3490    -5.4510 c3         1 NN4      -0.093600
     25 O18          2.0180    -0.3970    -4.7800 os         1 NN4      -0.348900
     26 C25          4.5290     1.8300    -3.3210 ca         1 NN4      -0.178500
     27 O27          6.4700     2.8180    -4.2970 os         1 NN4      -0.318900
     28 C23          5.0870     1.4060    -5.6330 ca         1 NN4      -0.178500
     29 H41         -0.3590     0.0020    -1.0220 hc         1 NN4       0.060450
     30 H42         -0.3590     0.8870     0.5070 hc         1 NN4       0.060450
     31 H5           1.9070     0.8830    -0.5100 hc         1 NN4       0.091700
     32 H61          3.1180     0.0020     1.4710 hc         1 NN4       0.057200
     33 H62          1.6700     0.8870     1.9620 hc         1 NN4       0.057200
     34 H71          3.1060    -2.5300     1.4810 hc         1 NN4       0.057200
     35 H72          1.6480    -3.3980     1.9770 hc         1 NN4       0.057200
     36 H81         -0.3800    -3.3900     0.5220 hc         1 NN4       0.060450
     37 H82         -0.3710    -2.5150    -1.0130 hc         1 NN4       0.060450
     38 H10          1.8860    -3.4140    -0.4950 hc         1 NN4       0.091700
     39 H201         0.8200    -3.3890    -4.1210 hc         1 NN4       0.056867
     40 H202         0.6710    -2.6480    -5.7210 hc         1 NN4       0.056867
     41 H203         0.0570    -1.8020    -4.2940 hc         1 NN4       0.056867
     42 H22          3.7370     0.1110    -6.7000 ha         1 NN4       0.139000
     43 H26          2.7470     0.8640    -2.5940 ha         1 NN4       0.139000
     44 H281         7.5920     4.0360    -3.0720 h1         1 NN4       0.042033
     45 H282         5.8510     4.0360    -2.7560 h1         1 NN4       0.042033
     46 H283         6.8370     2.6470    -2.2780 h1         1 NN4       0.042033
     47 HN11         0.9740    -0.8430    -2.4540 hn         1 NN4       0.328500
     48 H9           3.1560    -1.2720    -0.5780 h1         1 NN4       0.077700
     49 H3          -1.6140    -1.2450     0.7150 hc         1 NN4       0.079700
     50 H21         -0.3940    -2.1270     2.6880 hc         1 NN4       0.040700
     51 H22A        -0.3850    -0.3590     2.6810 hc         1 NN4       0.040700
     52 H131         1.8690     0.6610     3.8970 hn         1 NN4       0.475800
     53 H132         2.0160    -0.2250     5.2630 hn         1 NN4       0.475800
     54 H191         3.2130    -3.4320    -5.4060 hc         1 NN4       0.056867
     55 H192         3.0020    -2.0250    -6.4590 hc         1 NN4       0.056867
     56 H193         4.2180    -1.9950    -5.1740 hc         1 NN4       0.056867
     57 H25          4.7500     2.3100    -2.3750 ha         1 NN4       0.144000
     58 H23          5.7410     1.5570    -6.4830 ha         1 NN4       0.144000
     59 H133         0.6000    -0.2090     4.4420 hn         1 NN4       0.475800
@<TRIPOS>BOND
     1     1    17 1
     2     1     2 1
     3     1    29 1
     4     1    30 1
     5     2    16 1
     6     2     3 1
     7     2    31 1
     8     3    19 1
     9     3    32 1
    10     3    33 1
    11     4     6 1
    12     4    19 1
    13     4    34 1
    14     4    35 1
    15     5    17 1
    16     5     6 1
    17     5    36 1
    18     5    37 1
    19     6    16 1
    20     6    38 1
    21     7    23 1
    22     7    15 1
    23     7    14 2
    24     8    23 1
    25     8    39 1
    26     8    40 1
    27     8    41 1
    28     9    12 ar
    29     9    10 ar
    30     9    25 1
    31    10    28 ar
    32    10    42 1
    33    11    27 1
    34    11    26 ar
    35    11    28 ar
    36    12    26 ar
    37    12    43 1
    38    13    27 1
    39    13    44 1
    40    13    45 1
    41    13    46 1
    42    15    16 1
    43    15    47 1
    44    16    48 1
    45    17    18 1
    46    17    49 1
    47    18    19 1
    48    18    50 1
    49    18    51 1
    50    19    20 1
    51    20    21 2
    52    20    22 1
    53    22    52 1
    54    22    53 1
    55    23    25 1
    56    23    24 1
    57    24    54 1
    58    24    55 1
    59    24    56 1
    60    26    57 1
    61    28    58 1
    62    59    22 1
@<TRIPOS>SUBSTRUCTURE
     1 NN4         1 TEMP              0 ****  ****    0 ROOT
