@<TRIPOS>MOLECULE
molecule
   60    63     1     0     0
SMALL
bcc


@<TRIPOS>ATOM
      1 C1           0.0000     0.0000     0.0000 c3         1 NN7      -0.113100
      2 C2           1.5300     0.0000     0.0000 c3         1 NN7       0.228500
      3 C4           2.0410     0.0000     1.4420 c3         1 NN7       0.226800
      4 N5           3.5000    -0.1210     1.4440 nu         1 NN7      -0.816600
      5 C6           4.1970    -0.1430     2.6510 ca         1 NN7       0.272600
      6 C7           3.5140    -0.0520     3.8490 ca         1 NN7      -0.263000
      7 C8           4.2020    -0.0740     5.0540 ca         1 NN7      -0.033000
      8 C9           5.5750    -0.1870     5.0780 ca         1 NN7      -0.219000
      9 C10          6.2860    -0.2810     3.8850 ca         1 NN7       0.028800
     10 N11          7.6210    -0.3990     3.5830 na         1 NN7       0.141800
     11 N12          7.7480    -0.4510     2.1900 nc         1 NN7      -0.512100
     12 C13          6.5720    -0.3700     1.6370 cd         1 NN7       0.393800
     13 C14          5.5980    -0.2650     2.6580 ca         1 NN7      -0.314900
     14 C15          8.6720    -0.4600     4.5080 ca         1 NN7       0.035800
     15 C16          9.7820    -1.2510     4.2480 ca         1 NN7      -0.117000
     16 C17         10.8170    -1.3090     5.1610 ca         1 NN7      -0.151500
     17 C18         10.7460    -0.5780     6.3360 ca         1 NN7       0.120900
     18 F19         11.7600    -0.6360     7.2280 f          1 NN7      -0.139900
     19 C20          9.6390     0.2120     6.5960 ca         1 NN7      -0.151500
     20 C21          8.6050     0.2780     5.6830 ca         1 NN7      -0.117000
     21 N22          2.0180    -1.1970    -0.6910 n7         1 NN7      -0.916100
     22 S23          2.4120    -1.1230    -2.2980 sy         1 NN7       1.427200
     23 O24          2.8770    -2.4170    -2.6570 o          1 NN7      -0.639300
     24 O25          1.3240    -0.4800    -2.9480 o          1 NN7      -0.639300
     25 C26          3.7930    -0.0380    -2.4470 ca         1 NN7      -0.336500
     26 C27          3.5960     1.2900    -2.7770 ca         1 NN7       0.023700
     27 C28          2.2000     1.8100    -3.0080 c3         1 NN7      -0.069300
     28 C29          4.6790     2.1400    -2.8940 ca         1 NN7      -0.164000
     29 C30          5.9590     1.6640    -2.6810 ca         1 NN7      -0.013300
     30 C31          7.1400     2.5910    -2.8090 c3         1 NN7      -0.057800
     31 C32          6.1550     0.3360    -2.3510 ca         1 NN7      -0.164000
     32 C33          5.0720    -0.5140    -2.2290 ca         1 NN7       0.023700
     33 C34          5.2860    -1.9600    -1.8630 c3         1 NN7      -0.069300
     34 H11C        -0.3610    -0.1090    -1.0150 hc         1 NN7       0.051700
     35 H12C        -0.3610    -0.8250     0.6020 hc         1 NN7       0.051700
     36 H13C        -0.3610     0.9340     0.4130 hc         1 NN7       0.051700
     37 H2           1.8920     0.8850    -0.5110 h1         1 NN7       0.067700
     38 H41C         1.6080    -0.8360     1.9780 h1         1 NN7       0.049200
     39 H42C         1.7550     0.9260     1.9260 h1         1 NN7       0.049200
     40 H22          2.0680    -2.0690    -0.2040 hn         1 NN7       0.459800
     41 H5           4.0000    -0.1510     0.5780 hn         1 NN7       0.443800
     42 H7           2.4340     0.0380     3.8480 ha         1 NN7       0.133000
     43 H8           3.6540    -0.0010     5.9860 ha         1 NN7       0.133000
     44 H9           6.1010    -0.2030     6.0250 ha         1 NN7       0.135000
     45 H13          6.3730    -0.3850     0.5720 h4         1 NN7       0.056800
     46 H16          9.8380    -1.8230     3.3290 ha         1 NN7       0.155000
     47 H21          7.7400     0.8960     5.8880 ha         1 NN7       0.155000
     48 H17         11.6840    -1.9260     4.9590 ha         1 NN7       0.150500
     49 H20          9.5870     0.7850     7.5140 ha         1 NN7       0.150500
     50 H281         2.2060     2.8920    -2.9610 hc         1 NN7       0.061200
     51 H282         1.8540     1.4930    -3.9840 hc         1 NN7       0.061200
     52 H283         1.5380     1.4190    -2.2450 hc         1 NN7       0.061200
     53 H29          4.5250     3.1810    -3.1530 ha         1 NN7       0.140000
     54 H311         7.0120     3.2200    -3.6810 hc         1 NN7       0.051367
     55 H312         7.2090     3.2110    -1.9230 hc         1 NN7       0.051367
     56 H313         8.0470     2.0080    -2.9130 hc         1 NN7       0.051367
     57 H32          7.1580    -0.0380    -2.1820 ha         1 NN7       0.140000
     58 H341         6.3120    -2.1060    -1.5500 hc         1 NN7       0.061200
     59 H342         4.6190    -2.2300    -1.0530 hc         1 NN7       0.061200
     60 H343         5.0790    -2.5850    -2.7240 hc         1 NN7       0.061200
@<TRIPOS>BOND
     1     1     2 1
     2     2     3 1
     3     2    21 1
     4     3     4 1
     5     4     5 1
     6     5     6 ar
     7     5    13 ar
     8     6     7 ar
     9     7     8 ar
    10     8     9 ar
    11     9    10 1
    12     9    13 ar
    13    10    11 1
    14    10    14 1
    15    11    12 2
    16    12    13 1
    17    14    15 ar
    18    14    20 ar
    19    15    16 ar
    20    16    17 ar
    21    17    18 1
    22    17    19 ar
    23    19    20 ar
    24    21    22 1
    25    22    23 2
    26    22    24 2
    27    22    25 1
    28    25    26 ar
    29    25    32 ar
    30    26    27 1
    31    26    28 ar
    32    28    29 ar
    33    29    30 1
    34    29    31 ar
    35    31    32 ar
    36    32    33 1
    37     1    34 1
    38     1    35 1
    39     1    36 1
    40     2    37 1
    41     3    38 1
    42     3    39 1
    43    21    40 1
    44     4    41 1
    45     6    42 1
    46     7    43 1
    47     8    44 1
    48    12    45 1
    49    15    46 1
    50    20    47 1
    51    16    48 1
    52    19    49 1
    53    27    50 1
    54    27    51 1
    55    27    52 1
    56    28    53 1
    57    30    54 1
    58    30    55 1
    59    30    56 1
    60    31    57 1
    61    33    58 1
    62    33    59 1
    63    33    60 1
@<TRIPOS>SUBSTRUCTURE
     1 NN7         1 TEMP              0 ****  ****    0 ROOT
