@<TRIPOS>MOLECULE
NNB
   37    39     1     0     0
SMALL
bcc


@<TRIPOS>ATOM
      1 C13          0.0000     0.0000     0.0000 ca         1 NNB      -0.140500
      2 C14          1.3910     0.0000     0.0000 ca         1 NNB      -0.047000
      3 C15          2.0810     0.0000     1.2060 ca         1 NNB       0.016100
      4 Br2          3.9780    -0.0060     1.2320 br         1 NNB      -0.123100
      5 C16          1.3770    -0.0090     2.4050 ca         1 NNB      -0.047000
      6 C17         -0.0120    -0.0100     2.4050 ca         1 NNB      -0.140500
      7 C12         -0.7010    -0.0040     1.2000 ca         1 NNB      -0.157400
      8 N2          -2.0300    -0.0070     1.2100 ns         1 NNB       0.186900
      9 C11         -2.7190     0.3220     0.1210 cs         1 NNB       0.384500
     10 S1          -4.3460     0.3140     0.1650 s          1 NNB      -0.614400
     11 O3          -2.0770     0.6600    -1.0280 os         1 NNB      -0.317900
     12 C10         -3.0310     1.1770    -1.9610 c3         1 NNB       0.119400
     13 C9          -2.3360     1.3940    -3.3080 c3         1 NNB       0.050000
     14 N1          -1.2070     2.3100    -3.1030 n          1 NNB      -0.106400
     15 C8           0.0670     1.9590    -3.0060 c          1 NNB       0.642100
     16 O2           0.4990     0.8140    -3.1060 o          1 NNB      -0.628500
     17 C2           0.8410     3.0850    -2.7850 ca         1 NNB      -0.174600
     18 C3           2.2050     3.2830    -2.6180 ca         1 NNB      -0.008000
     19 C4           2.6800     4.5700    -2.3980 ca         1 NNB      -0.084500
     20 C5           1.7970     5.6460    -2.3640 ca         1 NNB      -0.084500
     21 C6           0.4320     5.4450    -2.5410 ca         1 NNB      -0.008000
     22 C1          -0.0410     4.1560    -2.7450 ca         1 NNB      -0.174600
     23 C7          -1.3100     3.6220    -2.9410 c          1 NNB       0.642100
     24 O1          -2.3650     4.2580    -2.9680 o          1 NNB      -0.628500
     25 H13         -0.5390     0.0020    -0.9400 ha         1 NNB       0.144000
     26 H14          1.9340     0.0030    -0.9370 ha         1 NNB       0.125500
     27 H16          1.9150    -0.0120     3.3450 ha         1 NNB       0.125500
     28 H17         -0.5560    -0.0150     3.3420 ha         1 NNB       0.144000
     29 H2          -2.5180    -0.2600     2.0470 hn         1 NNB       0.197500
     30 H101        -3.8420     0.4700    -2.0810 h1         1 NNB       0.068200
     31 H102        -3.4210     2.1200    -1.5980 h1         1 NNB       0.068200
     32 H9C1        -3.0340     1.8280    -4.0130 h1         1 NNB       0.052200
     33 H9C2        -1.9730     0.4470    -3.6880 h1         1 NNB       0.052200
     34 H6          -0.2540     6.2830    -2.5140 ha         1 NNB       0.121500
     35 H5           2.1750     6.6470    -2.1920 ha         1 NNB       0.111500
     36 H4           3.7410     4.7380    -2.2590 ha         1 NNB       0.111500
     37 H3           2.8890     2.4430    -2.6450 ha         1 NNB       0.121500
@<TRIPOS>BOND
     1     1     2 ar  
     2     1     7 ar  
     3     1    25 1   
     4     2     3 ar  
     5     2    26 1   
     6     3     4 1   
     7     3     5 ar  
     8     5     6 ar  
     9     5    27 1   
    10     6     7 ar  
    11     6    28 1   
    12     7     8 1   
    13     8     9 1   
    14     8    29 1   
    15     9    10 2   
    16     9    11 1   
    17    11    12 1   
    18    12    13 1   
    19    12    30 1   
    20    12    31 1   
    21    13    14 1   
    22    13    32 1   
    23    13    33 1   
    24    14    15 1   
    25    14    23 1   
    26    15    16 2   
    27    15    17 1   
    28    17    18 ar  
    29    17    22 ar  
    30    18    19 ar  
    31    18    37 1   
    32    19    20 ar  
    33    19    36 1   
    34    20    21 ar  
    35    20    35 1   
    36    21    22 ar  
    37    21    34 1   
    38    22    23 1   
    39    23    24 2   
@<TRIPOS>SUBSTRUCTURE
     1 NNB         1 TEMP              0 ****  ****    0 ROOT
