@<TRIPOS>MOLECULE
molecule
   37    39     1     0     0
SMALL
bcc


@<TRIPOS>ATOM
      1 C13          0.0000     0.0000     0.0000 ca         1 NNB      -0.169000
      2 C14          1.3910     0.0000     0.0000 ca         1 NNB      -0.070500
      3 C15          2.0810     0.0000     1.2060 ca         1 NNB      -0.042900
      4 Br2          3.9780    -0.0060     1.2320 br         1 NNB      -0.096100
      5 C16          1.3770    -0.0090     2.4050 ca         1 NNB      -0.070500
      6 C17         -0.0120    -0.0100     2.4050 ca         1 NNB      -0.169000
      7 C12         -0.7010    -0.0040     1.2000 ca         1 NNB       0.030600
      8 N2          -2.0300    -0.0070     1.2100 ns         1 NNB      -0.351100
      9 C11         -2.7190     0.3220     0.1210 cs         1 NNB       0.570500
     10 S1          -4.3460     0.3140     0.1650 s          1 NNB      -0.587400
     11 O3          -2.0770     0.6600    -1.0280 os         1 NNB      -0.344900
     12 C10         -3.0310     1.1770    -1.9610 c3         1 NNB       0.080400
     13 C9          -2.3360     1.3940    -3.3080 c3         1 NNB       0.113000
     14 N1          -1.2070     2.3100    -3.1030 n          1 NNB      -0.480400
     15 C8           0.0670     1.9590    -3.0060 c          1 NNB       0.718100
     16 O2           0.4990     0.8140    -3.1060 o          1 NNB      -0.592500
     17 C2           0.8410     3.0850    -2.7850 ca         1 NNB      -0.158100
     18 C3           2.2050     3.2830    -2.6180 ca         1 NNB      -0.050500
     19 C4           2.6800     4.5700    -2.3980 ca         1 NNB      -0.110500
     20 C5           1.7970     5.6460    -2.3640 ca         1 NNB      -0.110500
     21 C6           0.4320     5.4450    -2.5410 ca         1 NNB      -0.050500
     22 C1          -0.0410     4.1560    -2.7450 ca         1 NNB      -0.158100
     23 C7          -1.3100     3.6220    -2.9410 c          1 NNB       0.718100
     24 O1          -2.3650     4.2580    -2.9680 o          1 NNB      -0.592500
     25 H13         -0.5390     0.0020    -0.9400 ha         1 NNB       0.163500
     26 H14          1.9340     0.0030    -0.9370 ha         1 NNB       0.153500
     27 H16          1.9150    -0.0120     3.3450 ha         1 NNB       0.153500
     28 H17         -0.5560    -0.0150     3.3420 ha         1 NNB       0.163500
     29 H2          -2.5180    -0.2600     2.0470 hn         1 NNB       0.375500
     30 H101        -3.8420     0.4700    -2.0810 h1         1 NNB       0.094200
     31 H102        -3.4210     2.1200    -1.5980 h1         1 NNB       0.094200
     32 H9C1        -3.0340     1.8280    -4.0130 h1         1 NNB       0.087200
     33 H9C2        -1.9730     0.4470    -3.6880 h1         1 NNB       0.087200
     34 H6          -0.2540     6.2830    -2.5140 ha         1 NNB       0.155500
     35 H5           2.1750     6.6470    -2.1920 ha         1 NNB       0.145500
     36 H4           3.7410     4.7380    -2.2590 ha         1 NNB       0.145500
     37 H3           2.8890     2.4430    -2.6450 ha         1 NNB       0.155500
@<TRIPOS>BOND
     1     1     2 ar
     2     1     7 ar
     3     2     3 ar
     4     3     4 1
     5     3     5 ar
     6     5     6 ar
     7     6     7 ar
     8     7     8 1
     9     8     9 1
    10     9    10 2
    11     9    11 1
    12    11    12 1
    13    12    13 1
    14    13    14 1
    15    14    23 1
    16    14    15 1
    17    23    24 2
    18    23    22 1
    19    22    21 ar
    20    22    17 ar
    21    21    20 ar
    22    20    19 ar
    23    19    18 ar
    24    18    17 ar
    25    17    15 1
    26    15    16 2
    27     1    25 1
    28     2    26 1
    29     5    27 1
    30     6    28 1
    31     8    29 1
    32    12    30 1
    33    12    31 1
    34    13    32 1
    35    13    33 1
    36    21    34 1
    37    20    35 1
    38    19    36 1
    39    18    37 1
@<TRIPOS>SUBSTRUCTURE
     1 NNB         1 TEMP              0 ****  ****    0 ROOT
