@<TRIPOS>MOLECULE
NNC
   37    39     1     0     0
SMALL
bcc


@<TRIPOS>ATOM
      1 C13          0.0000     0.0000     0.0000 ca         1 NNC      -0.144000
      2 C14          1.3910     0.0000     0.0000 ca         1 NNC      -0.063000
      3 C15          2.0830     0.0000     1.2050 ca         1 NNC      -0.055600
      4 Cl2          3.8110    -0.0120     1.2140 cl         1 NNC      -0.019400
      5 C16          1.3890     0.0040     2.4070 ca         1 NNC      -0.063000
      6 C17         -0.0010     0.0140     2.4070 ca         1 NNC      -0.144000
      7 C12         -0.6950    -0.0040     1.2050 ca         1 NNC      -0.162400
      8 N2          -2.0240     0.0220     1.2160 ns         1 NNC       0.192900
      9 C11         -2.7110     0.1740     0.0860 cs         1 NNC       0.384500
     10 S1          -4.3370     0.2470     0.1450 s          1 NNC      -0.618400
     11 O3          -2.0700     0.2820    -1.1100 os         1 NNC      -0.315900
     12 C10         -3.0160     0.6410    -2.1320 c3         1 NNC       0.123400
     13 C9          -2.3140     0.6420    -3.4960 c3         1 NNC       0.050000
     14 N1          -1.1410     1.5190    -3.4200 n          1 NNC      -0.109400
     15 C7          -1.1590     2.8440    -3.5330 c          1 NNC       0.642100
     16 O1          -2.1550     3.5290    -3.7620 o          1 NNC      -0.625000
     17 C1           0.1300     3.3340    -3.3780 ca         1 NNC      -0.174600
     18 C6           0.6740     4.6110    -3.4130 ca         1 NNC      -0.009000
     19 C5           2.0380     4.7760    -3.2010 ca         1 NNC      -0.084000
     20 C4           2.8470     3.6720    -2.9650 ca         1 NNC      -0.084000
     21 C3           2.3000     2.3960    -2.9380 ca         1 NNC      -0.009000
     22 C2           0.9380     2.2310    -3.1440 ca         1 NNC      -0.174600
     23 C8           0.1000     1.1220    -3.1680 c          1 NNC       0.642100
     24 O2           0.4510    -0.0440    -3.0020 o          1 NNC      -0.625000
     25 H13         -0.5420    -0.0070    -0.9380 ha         1 NNC       0.149500
     26 H14          1.9340     0.0030    -0.9380 ha         1 NNC       0.124000
     27 H16          1.9300     0.0110     3.3450 ha         1 NNC       0.124000
     28 H17         -0.5420     0.0140     3.3460 ha         1 NNC       0.149500
     29 H2          -2.5140    -0.0750     2.0830 hn         1 NNC       0.196500
     30 H101        -3.8260    -0.0780    -2.1430 h1         1 NNC       0.064700
     31 H102        -3.4120     1.6280    -1.9280 h1         1 NNC       0.064700
     32 H9C1        -2.0010    -0.3650    -3.7450 h1         1 NNC       0.053200
     33 H9C2        -2.9950     1.0100    -4.2540 h1         1 NNC       0.053200
     34 H6           0.0410     5.4710    -3.5970 ha         1 NNC       0.120500
     35 H5           2.4710     5.7690    -3.2200 ha         1 NNC       0.112000
     36 H4           3.9100     3.8070    -2.8000 ha         1 NNC       0.112000
     37 H3           2.9320     1.5360    -2.7550 ha         1 NNC       0.120500
@<TRIPOS>BOND
     1     1     2 ar  
     2     1     7 ar  
     3     1    25 1   
     4     2     3 ar  
     5     2    26 1   
     6     3     4 1   
     7     3     5 ar  
     8     5     6 ar  
     9     5    27 1   
    10     6     7 ar  
    11     6    28 1   
    12     7     8 1   
    13     8     9 1   
    14     8    29 1   
    15     9    10 2   
    16     9    11 1   
    17    11    12 1   
    18    12    13 1   
    19    12    30 1   
    20    12    31 1   
    21    13    14 1   
    22    13    32 1   
    23    13    33 1   
    24    14    15 1   
    25    14    23 1   
    26    15    16 2   
    27    15    17 1   
    28    17    18 ar  
    29    17    22 ar  
    30    18    19 ar  
    31    18    34 1   
    32    19    20 ar  
    33    19    35 1   
    34    20    21 ar  
    35    20    36 1   
    36    21    22 ar  
    37    21    37 1   
    38    22    23 1   
    39    23    24 2   
@<TRIPOS>SUBSTRUCTURE
     1 NNC         1 TEMP              0 ****  ****    0 ROOT
