@<TRIPOS>MOLECULE
NND
   51    51     1     0     0
SMALL
bcc


@<TRIPOS>ATOM
      1 O6           0.0000     0.0000     0.0000 oh         1 NND      -0.581800
      2 C6           1.4290     0.0000     0.0000 c3         1 NND       0.213400
      3 C5           1.9390     0.0000     1.4420 c3         1 NND       0.117500
      4 C4           1.3590    -1.2020     2.1890 c3         1 NND       0.178100
      5 O4           1.7830    -2.4090     1.5530 oh         1 NND      -0.591800
      6 O3           1.2730    -2.2760     4.3550 oh         1 NND      -0.585800
      7 C2           1.4490     0.1360     4.2930 c3         1 NND       0.175100
      8 O2           1.9580     0.1830     5.6280 oh         1 NND      -0.585800
      9 N1           1.5210     1.2400     2.1080 n3         1 NND      -0.517600
     10 C8           1.9440     2.4190     1.3400 c3         1 NND       0.139800
     11 C7           1.3420     3.6790     1.9680 c3         1 NND      -0.038400
     12 C1           2.0270     1.3000     3.4850 c3         1 NND       0.115800
     13 C9           1.7830     4.9070     1.1670 c3         1 NND      -0.027400
     14 C10          1.1810     6.1660     1.7940 c3         1 NND      -0.028400
     15 C14          1.6220     7.3940     0.9950 c3         1 NND      -0.029400
     16 C13          1.0210     8.6530     1.6210 c3         1 NND      -0.029400
     17 C12          1.4620     9.8810     0.8210 c3         1 NND      -0.030400
     18 C16          1.3010    12.3680     0.6480 c3         1 NND       0.005900
     19 C11          0.8600    11.1400     1.4480 c3         1 NND      -0.028400
     20 C31          1.8560    -1.1860     3.6380 c3         1 NND       0.151100
     21 H6          -0.3140    -0.1160    -0.8810 ho         1 NND       0.385000
     22 H6C1         1.7900     0.8840    -0.5110 h1         1 NND      -0.001800
     23 H6C2         1.7900    -0.8850    -0.5110 h1         1 NND      -0.001800
     24 H5           3.0210    -0.0630     1.4470 h1         1 NND       0.022700
     25 H4           0.2770    -1.1430     2.1790 h1         1 NND       0.041700
     26 HA           1.0850    -3.0430     1.5840 ho         1 NND       0.400000
     27 H31          2.9350    -1.2760     3.6490 h1         1 NND       0.018700
     28 H3           1.9560    -2.8170     4.7140 ho         1 NND       0.397000
     29 H2           0.3680     0.2110     4.3110 h1         1 NND       0.023700
     30 HB           1.2790     0.4760     6.2130 ho         1 NND       0.394000
     31 H1C1         3.1080     1.2290     3.4750 h1         1 NND       0.022700
     32 H1C2         1.7250     2.2360     3.9390 h1         1 NND       0.022700
     33 H8C1         3.0250     2.4900     1.3530 h1         1 NND       0.016200
     34 H8C2         1.6000     2.3260     0.3170 h1         1 NND       0.016200
     35 H7C1         0.2620     3.6080     1.9550 hc         1 NND       0.025200
     36 H7C2         1.6860     3.7720     2.9910 hc         1 NND       0.025200
     37 H9C1         1.4390     4.8130     0.1440 hc         1 NND       0.013700
     38 H9C2         2.8640     4.9780     1.1800 hc         1 NND       0.013700
     39 H101         0.1010     6.0950     1.7820 hc         1 NND       0.015700
     40 H102         1.5250     6.2590     2.8180 hc         1 NND       0.015700
     41 H141         2.7030     7.4640     1.0080 hc         1 NND       0.014700
     42 H142         1.2780     7.3000    -0.0280 hc         1 NND       0.014700
     43 H131        -0.0600     8.5830     1.6080 hc         1 NND       0.014700
     44 H132         1.3650     8.7470     2.6440 hc         1 NND       0.014700
     45 H121         2.5430     9.9520     0.8350 hc         1 NND       0.014700
     46 H122         1.1190     9.7880    -0.2020 hc         1 NND       0.014700
     47 H111         1.2040    11.2330     2.4710 hc         1 NND       0.012200
     48 H112        -0.2210    11.0690     1.4350 hc         1 NND       0.012200
     49 H161         0.9580    12.2740    -0.3750 hc         1 NND       0.000033
     50 H162         2.3820    12.4390     0.6620 hc         1 NND       0.000033
     51 H163         0.8740    13.2600     1.0920 hc         1 NND       0.000033
@<TRIPOS>BOND
     1     1     2 1   
     2     1    21 1   
     3     2     3 1   
     4     2    22 1   
     5     2    23 1   
     6     3     4 1   
     7     3     9 1   
     8     3    24 1   
     9     4     5 1   
    10     4    20 1   
    11     4    25 1   
    12     5    26 1   
    13     6    20 1   
    14     6    28 1   
    15     7     8 1   
    16     7    12 1   
    17     7    20 1   
    18     7    29 1   
    19     8    30 1   
    20     9    10 1   
    21     9    12 1   
    22    10    11 1   
    23    10    33 1   
    24    10    34 1   
    25    11    13 1   
    26    11    35 1   
    27    11    36 1   
    28    12    31 1   
    29    12    32 1   
    30    13    14 1   
    31    13    37 1   
    32    13    38 1   
    33    14    15 1   
    34    14    39 1   
    35    14    40 1   
    36    15    16 1   
    37    15    41 1   
    38    15    42 1   
    39    16    17 1   
    40    16    43 1   
    41    16    44 1   
    42    17    19 1   
    43    17    45 1   
    44    17    46 1   
    45    18    19 1   
    46    18    49 1   
    47    18    50 1   
    48    18    51 1   
    49    19    47 1   
    50    19    48 1   
    51    20    27 1   
@<TRIPOS>SUBSTRUCTURE
     1 NND         1 TEMP              0 ****  ****    0 ROOT
