@<TRIPOS>MOLECULE
molecule
   74    75     1     0     0
SMALL
bcc


@<TRIPOS>ATOM
      1 CAM          0.0000     0.0000     0.0000 c2         1 NNE      -0.132000
      2 CAK          1.3320     0.0000     0.0000 ce         1 NNE      -0.211900
      3 CAL          2.0850     0.0000     1.3050 c3         1 NNE      -0.042700
      4 CAN          2.4290    -1.4380     1.6970 c3         1 NNE      -0.088600
      5 CAJ          2.0670    -0.0020    -1.2730 c          1 NNE       0.591900
      6 OAA          1.4620    -0.1010    -2.3240 o          1 NNE      -0.510100
      7 CAD          3.5370     0.1160    -1.2760 ca         1 NNE      -0.173100
      8 CAI          4.1420     1.3550    -1.0370 ca         1 NNE       0.084400
      9 Cl1          3.1650     2.7580    -0.7370 cl         1 NNE      -0.064400
     10 CAH          5.5180     1.4600    -1.0410 ca         1 NNE      -0.003600
     11 Cl2          6.2720     2.9960    -0.7450 cl         1 NNE      -0.054400
     12 CAE          4.3300    -1.0110    -1.5120 ca         1 NNE      -0.047000
     13 CAF          5.7030    -0.8980    -1.5130 ca         1 NNE      -0.223000
     14 CAG          6.3010     0.3360    -1.2810 ca         1 NNE       0.166100
     15 OAW          7.6540     0.4430    -1.2830 os         1 NNE      -0.275900
     16 CAT          8.3990    -0.7510    -1.5360 c3         1 NNE       0.062400
     17 CAU          9.8730    -0.4410    -1.4990 c          1 NNE       0.655600
     18 OBA         10.2490     0.6910    -1.2780 o          1 NNE      -0.565100
     19 NAV         10.7730    -1.4210    -1.7130 ns         1 NNE      -0.590900
     20 CAX         12.2060    -1.1190    -1.6770 c3         1 NNE       0.117000
     21 CAY         13.0030    -2.3970    -1.9480 c3         1 NNE      -0.098400
     22 CAS         14.5000    -2.0820    -1.9110 c3         1 NNE      -0.098400
     23 CAR         15.2960    -3.3600    -2.1810 c3         1 NNE       0.117000
     24 NAQ         16.7300    -3.0590    -2.1460 ns         1 NNE      -0.590900
     25 CAP         17.6300    -4.0390    -2.3580 c          1 NNE       0.655600
     26 OAZ         17.2540    -5.1700    -2.5790 o          1 NNE      -0.565100
     27 CAO         19.1050    -3.7280    -2.3210 c3         1 NNE       0.062400
     28 OBH         19.8490    -4.9210    -2.5740 os         1 NNE      -0.275900
     29 CBE         21.2020    -4.8150    -2.5760 ca         1 NNE       0.166100
     30 CBD         21.9840    -5.9380    -2.8210 ca         1 NNE      -0.003600
     31 Cl3         21.2310    -7.4720    -3.1250 cl         1 NNE      -0.054400
     32 CBC         23.3600    -5.8330    -2.8250 ca         1 NNE       0.084400
     33 Cl4         24.3390    -7.2340    -3.1310 cl         1 NNE      -0.064400
     34 CBF         21.8000    -3.5830    -2.3400 ca         1 NNE      -0.223000
     35 CBG         23.1720    -3.4690    -2.3400 ca         1 NNE      -0.047000
     36 CBB         23.9660    -4.5950    -2.5810 ca         1 NNE      -0.173100
     37 CBI         25.4360    -4.4780    -2.5830 c          1 NNE       0.591900
     38 OBL         26.0050    -3.9740    -3.5340 o          1 NNE      -0.510100
     39 CBJ         26.2150    -4.9690    -1.4360 ce         1 NNE      -0.211900
     40 CBK         25.5190    -5.6710    -0.2980 c3         1 NNE      -0.042700
     41 CBN         25.0100    -4.6340     0.7050 c3         1 NNE      -0.088600
     42 CBM         27.5330    -4.7920    -1.4020 c2         1 NNE      -0.132000
     43 H1          -0.5420    -0.0010    -0.9380 ha         1 NNE       0.129250
     44 H2          -0.5420     0.0000     0.9380 ha         1 NNE       0.129250
     45 H5           2.9990     0.5720     1.1940 hc         1 NNE       0.053200
     46 H6           1.4710     0.4470     2.0770 hc         1 NNE       0.053200
     47 H7           2.3510    -2.0790     0.8270 hc         1 NNE       0.035533
     48 H8           1.7390    -1.7790     2.4600 hc         1 NNE       0.035533
     49 H9           3.4410    -1.4750     2.0830 hc         1 NNE       0.035533
     50 H10          3.8660    -1.9730    -1.6940 ha         1 NNE       0.149000
     51 H11          6.3170    -1.7700    -1.6980 ha         1 NNE       0.142000
     52 H12          8.1360    -1.1400    -2.5120 h1         1 NNE       0.054950
     53 H13          8.1660    -1.4890    -0.7780 h1         1 NNE       0.054950
     54 H14         10.4630    -2.3540    -1.8980 hn         1 NNE       0.312500
     55 H15         12.4690    -0.7300    -0.7000 h1         1 NNE       0.057700
     56 H16         12.4390    -0.3810    -2.4350 h1         1 NNE       0.057700
     57 H17         12.7710    -3.1350    -1.1900 hc         1 NNE       0.051200
     58 H18         12.7400    -2.7870    -2.9240 hc         1 NNE       0.051200
     59 H19         14.7320    -1.3440    -2.6690 hc         1 NNE       0.051200
     60 H20         14.7630    -1.6930    -0.9350 hc         1 NNE       0.051200
     61 H21         15.0330    -3.7490    -3.1580 h1         1 NNE       0.057700
     62 H22         15.0630    -4.0980    -1.4240 h1         1 NNE       0.057700
     63 H23         17.0400    -2.1250    -1.9630 hn         1 NNE       0.312500
     64 H24         19.3370    -2.9900    -3.0790 h1         1 NNE       0.054950
     65 H25         19.3680    -3.3390    -1.3450 h1         1 NNE       0.054950
     66 H26         21.1860    -2.7110    -2.1530 ha         1 NNE       0.142000
     67 H27         23.6360    -2.5080    -2.1530 ha         1 NNE       0.149000
     68 H29         24.6830    -6.2420    -0.6830 hc         1 NNE       0.053200
     69 H30         26.2160    -6.3380     0.1940 hc         1 NNE       0.053200
     70 H31         24.0240    -4.9200     1.0500 hc         1 NNE       0.035533
     71 H32         25.6880    -4.5860     1.5490 hc         1 NNE       0.035533
     72 H33         24.9590    -3.6640     0.2280 hc         1 NNE       0.035533
     73 H34         28.1070    -5.1540    -0.5570 ha         1 NNE       0.129250
     74 H35         28.0330    -4.2870    -2.2200 ha         1 NNE       0.129250
@<TRIPOS>BOND
     1     4     3 1
     2     3     2 1
     3     2     1 2
     4     2     5 1
     5     9     8 1
     6     6     5 2
     7     5     7 1
     8     8     7 ar
     9     8    10 ar
    10     7    12 ar
    11    11    10 1
    12    12    13 ar
    13    10    14 ar
    14    13    14 ar
    15    14    15 1
    16    15    16 1
    17    26    25 2
    18    16    17 1
    19    23    22 1
    20    23    24 1
    21    22    21 1
    22    19    17 1
    23    19    20 1
    24    25    24 1
    25    25    27 1
    26    17    18 2
    27    21    20 1
    28    27    28 1
    29    28    29 1
    30    29    34 ar
    31    29    30 ar
    32    34    35 ar
    33    35    36 ar
    34    31    30 1
    35    30    32 ar
    36    36    32 ar
    37    36    37 1
    38    32    33 1
    39    37    38 2
    40    37    39 1
    41    42    39 2
    42    39    40 1
    43    40    41 1
    44     1    43 1
    45     1    44 1
    46     3    45 1
    47     3    46 1
    48     4    47 1
    49     4    48 1
    50     4    49 1
    51    12    50 1
    52    13    51 1
    53    16    52 1
    54    16    53 1
    55    19    54 1
    56    20    55 1
    57    20    56 1
    58    21    57 1
    59    21    58 1
    60    22    59 1
    61    22    60 1
    62    23    61 1
    63    23    62 1
    64    24    63 1
    65    27    64 1
    66    27    65 1
    67    34    66 1
    68    35    67 1
    69    40    68 1
    70    40    69 1
    71    41    70 1
    72    41    71 1
    73    41    72 1
    74    42    73 1
    75    42    74 1
@<TRIPOS>SUBSTRUCTURE
     1 NNE         1 TEMP              0 ****  ****    0 ROOT
