@<TRIPOS>MOLECULE
NNE
   74    75     1     0     0
SMALL
bcc


@<TRIPOS>ATOM
      1 CAM          0.0000     0.0000     0.0000 c2         1 NNE      -0.062000
      2 CAK          1.3320     0.0000     0.0000 ce         1 NNE      -0.235400
      3 CAL          2.0850     0.0000     1.3050 c3         1 NNE       0.020300
      4 CAN          2.4290    -1.4380     1.6970 c3         1 NNE       0.005400
      5 CAJ          2.0670    -0.0020    -1.2730 c          1 NNE       0.649900
      6 OAA          1.4620    -0.1010    -2.3240 o          1 NNE      -0.545100
      7 CAD          3.5370     0.1160    -1.2760 ca         1 NNE      -0.186100
      8 CAI          4.1420     1.3550    -1.0370 ca         1 NNE       0.018900
      9 Cl1          3.1650     2.7580    -0.7370 cl         1 NNE       0.015100
     10 CAH          5.5180     1.4600    -1.0410 ca         1 NNE      -0.090600
     11 Cl2          6.2720     2.9960    -0.7450 cl         1 NNE       0.035100
     12 CAE          4.3300    -1.0110    -1.5120 ca         1 NNE      -0.008000
     13 CAF          5.7030    -0.8980    -1.5130 ca         1 NNE      -0.215500
     14 CAG          6.3010     0.3360    -1.2810 ca         1 NNE       0.171100
     15 OAW          7.6540     0.4430    -1.2830 os         1 NNE      -0.254900
     16 CAT          8.3990    -0.7510    -1.5360 c3         1 NNE       0.134900
     17 CAU          9.8730    -0.4410    -1.4990 c          1 NNE       0.560100
     18 OBA         10.2490     0.6910    -1.2780 o          1 NNE      -0.611100
     19 NAV         10.7730    -1.4210    -1.7130 ns         1 NNE      -0.201900
     20 CAX         12.2060    -1.1190    -1.6770 c3         1 NNE       0.053000
     21 CAY         13.0030    -2.3970    -1.9480 c3         1 NNE      -0.035400
     22 CAS         14.5000    -2.0820    -1.9110 c3         1 NNE      -0.035400
     23 CAR         15.2960    -3.3600    -2.1810 c3         1 NNE       0.053000
     24 NAQ         16.7300    -3.0590    -2.1460 ns         1 NNE      -0.201900
     25 CAP         17.6300    -4.0390    -2.3580 c          1 NNE       0.560100
     26 OAZ         17.2540    -5.1700    -2.5790 o          1 NNE      -0.611100
     27 CAO         19.1050    -3.7280    -2.3210 c3         1 NNE       0.134900
     28 OBH         19.8490    -4.9210    -2.5740 os         1 NNE      -0.254900
     29 CBE         21.2020    -4.8150    -2.5760 ca         1 NNE       0.171100
     30 CBD         21.9840    -5.9380    -2.8210 ca         1 NNE      -0.090600
     31 Cl3         21.2310    -7.4720    -3.1250 cl         1 NNE       0.035100
     32 CBC         23.3600    -5.8330    -2.8250 ca         1 NNE       0.018900
     33 Cl4         24.3390    -7.2340    -3.1310 cl         1 NNE       0.015100
     34 CBF         21.8000    -3.5830    -2.3400 ca         1 NNE      -0.215500
     35 CBG         23.1720    -3.4690    -2.3400 ca         1 NNE      -0.008000
     36 CBB         23.9660    -4.5950    -2.5810 ca         1 NNE      -0.186100
     37 CBI         25.4360    -4.4780    -2.5830 c          1 NNE       0.649900
     38 OBL         26.0050    -3.9740    -3.5340 o          1 NNE      -0.545100
     39 CBJ         26.2150    -4.9690    -1.4360 ce         1 NNE      -0.235400
     40 CBK         25.5190    -5.6710    -0.2980 c3         1 NNE       0.020300
     41 CBN         25.0100    -4.6340     0.7050 c3         1 NNE       0.005400
     42 CBM         27.5330    -4.7920    -1.4020 c2         1 NNE      -0.062000
     43 H1          -0.5420     0.0010     0.9380 ha         1 NNE       0.094000
     44 H2          -0.5420     0.0000    -0.9380 ha         1 NNE       0.094000
     45 H5           2.9990     0.5720     1.1940 hc         1 NNE       0.022700
     46 H6           1.4710     0.4480     2.0770 hc         1 NNE       0.022700
     47 H7           1.7380    -1.7800     2.4590 hc         1 NNE       0.003367
     48 H8           2.3520    -2.0780     0.8270 hc         1 NNE       0.003367
     49 H9           3.4400    -1.4750     2.0850 hc         1 NNE       0.003367
     50 H10          3.8660    -1.9730    -1.6940 ha         1 NNE       0.112000
     51 H11          6.3170    -1.7700    -1.6980 ha         1 NNE       0.122000
     52 H12          8.1360    -1.1400    -2.5120 h1         1 NNE       0.015450
     53 H13          8.1660    -1.4890    -0.7780 h1         1 NNE       0.015450
     54 H14         10.4630    -2.3500    -1.9180 hn         1 NNE       0.172500
     55 H15         12.4690    -0.7300    -0.7000 h1         1 NNE       0.028950
     56 H16         12.4390    -0.3810    -2.4350 h1         1 NNE       0.028950
     57 H17         12.7400    -2.7870    -2.9240 hc         1 NNE       0.021200
     58 H18         12.7710    -3.1350    -1.1900 hc         1 NNE       0.021200
     59 H19         14.7630    -1.6930    -0.9350 hc         1 NNE       0.021200
     60 H20         14.7320    -1.3440    -2.6690 hc         1 NNE       0.021200
     61 H21         15.0630    -4.0980    -1.4240 h1         1 NNE       0.028950
     62 H22         15.0330    -3.7490    -3.1580 h1         1 NNE       0.028950
     63 H23         17.0400    -2.1250    -1.9640 hn         1 NNE       0.172500
     64 H24         19.3680    -3.3390    -1.3450 h1         1 NNE       0.015450
     65 H25         19.3370    -2.9900    -3.0790 h1         1 NNE       0.015450
     66 H26         21.1860    -2.7110    -2.1530 ha         1 NNE       0.122000
     67 H27         23.6360    -2.5080    -2.1530 ha         1 NNE       0.112000
     68 H29         26.2160    -6.3380     0.1940 hc         1 NNE       0.022700
     69 H30         24.6830    -6.2420    -0.6830 hc         1 NNE       0.022700
     70 H31         25.6240    -4.6640     1.5980 hc         1 NNE       0.003367
     71 H32         25.0630    -3.6470     0.2630 hc         1 NNE       0.003367
     72 H33         23.9830    -4.8590     0.9660 hc         1 NNE       0.003367
     73 H34         28.0340    -4.2870    -2.2200 ha         1 NNE       0.094000
     74 H35         28.1070    -5.1540    -0.5570 ha         1 NNE       0.094000
@<TRIPOS>BOND
     1     1     2 2   
     2     1    43 1   
     3     1    44 1   
     4     2     3 1   
     5     2     5 1   
     6     3     4 1   
     7     3    45 1   
     8     3    46 1   
     9     4    47 1   
    10     4    48 1   
    11     4    49 1   
    12     5     6 2   
    13     5     7 1   
    14     7     8 ar  
    15     7    12 ar  
    16     8     9 1   
    17     8    10 ar  
    18    10    11 1   
    19    10    14 ar  
    20    12    13 ar  
    21    12    50 1   
    22    13    14 ar  
    23    13    51 1   
    24    14    15 1   
    25    15    16 1   
    26    16    17 1   
    27    16    52 1   
    28    16    53 1   
    29    17    18 2   
    30    17    19 1   
    31    19    20 1   
    32    19    54 1   
    33    20    21 1   
    34    20    55 1   
    35    20    56 1   
    36    21    22 1   
    37    21    57 1   
    38    21    58 1   
    39    22    23 1   
    40    22    59 1   
    41    22    60 1   
    42    23    24 1   
    43    23    61 1   
    44    23    62 1   
    45    24    25 1   
    46    24    63 1   
    47    25    26 2   
    48    25    27 1   
    49    27    28 1   
    50    27    64 1   
    51    27    65 1   
    52    28    29 1   
    53    29    30 ar  
    54    29    34 ar  
    55    30    31 1   
    56    30    32 ar  
    57    32    33 1   
    58    32    36 ar  
    59    34    35 ar  
    60    34    66 1   
    61    35    36 ar  
    62    35    67 1   
    63    36    37 1   
    64    37    38 2   
    65    37    39 1   
    66    39    40 1   
    67    39    42 2   
    68    40    41 1   
    69    40    68 1   
    70    40    69 1   
    71    41    70 1   
    72    41    71 1   
    73    41    72 1   
    74    42    73 1   
    75    42    74 1   
@<TRIPOS>SUBSTRUCTURE
     1 NNE         1 TEMP              0 ****  ****    0 ROOT
