@<TRIPOS>MOLECULE
NNF
   38    40     1     0     0
SMALL
bcc


@<TRIPOS>ATOM
      1 CAA          0.0000     0.0000     0.0000 c3         1 NNF       0.055100
      2 OAB          4.2360     0.0010     2.1940 o          1 NNF      -0.690500
      3 CAD          5.5870     2.7180    -7.9640 ca         1 NNF      -0.103000
      4 CAE          7.0330     3.7690    -6.3640 ca         1 NNF      -0.103000
      5 CAF          5.1730     1.8170    -7.0020 ca         1 NNF      -0.120500
      6 CAG          6.6220     2.8700    -5.3990 ca         1 NNF      -0.120500
      7 CAH          2.1890     0.0000     1.1820 cc         1 NNF      -0.368200
      8 CAI          5.9410     1.2390    -3.4580 c3         1 NNF       0.118800
      9 CAJ          3.8100     1.0030    -4.5910 c3         1 NNF       0.118800
     10 CAK          5.5970     0.1190    -2.4710 c3         1 NNF       0.167800
     11 CAL          3.3780    -0.1270    -3.6510 c3         1 NNF       0.167800
     12 NAM          2.1720    -0.0010    -1.1540 nd         1 NNF      -0.656300
     13 NAN          4.2220    -0.0010    -0.0400 ns         1 NNF      -0.029400
     14 CAO          1.5080     0.0000     0.0000 cd         1 NNF       0.200400
     15 CAP          6.5170     3.6930    -7.6460 ca         1 NNF       0.083900
     16 CAQ          5.6900     1.8910    -5.7150 ca         1 NNF       0.005600
     17 CAR          3.4900    -0.0030    -1.1860 cc         1 NNF       0.421800
     18 CAS          3.5950    -0.0000     1.1570 c          1 NNF       0.618700
     19 NAT          5.2720     0.9820    -4.7390 nh         1 NNF      -0.358000
     20 NAU          4.1320    -0.0030    -2.3940 nh         1 NNF      -0.425600
     21 HAA         -0.3610    -0.7970     0.6390 hc         1 NNF       0.016033
     22 HAAA        -0.3610     0.9520     0.3710 hc         1 NNF       0.016033
     23 HAAB        -0.3610    -0.1550    -1.0100 hc         1 NNF       0.016033
     24 HAD          5.1840     2.6610    -8.9680 ha         1 NNF       0.119500
     25 HAE          7.7610     4.5330    -6.1170 ha         1 NNF       0.119500
     26 HAF          4.4450     1.0540    -7.2510 ha         1 NNF       0.121500
     27 HAG          7.0270     2.9300    -4.3960 ha         1 NNF       0.121500
     28 HAH          1.6640     0.1940     2.1100 ha         1 NNF       0.148000
     29 HAI          5.6010     2.1870    -3.0590 h1         1 NNF       0.030200
     30 HAIA         7.0130     1.2680    -3.6100 h1         1 NNF       0.030200
     31 HAJ          3.3480     0.8620    -5.5610 h1         1 NNF       0.030200
     32 HAJA         3.5040     1.9550    -4.1740 h1         1 NNF       0.030200
     33 HAK          6.0210    -0.8150    -2.8200 h1         1 NNF       0.039450
     34 HAKA         5.9930     0.3620    -1.4920 h1         1 NNF       0.039450
     35 HAL          2.3170    -0.0440    -3.4470 h1         1 NNF       0.039450
     36 HALA         3.5930    -1.0840    -4.1110 h1         1 NNF       0.039450
     37 HNAN         5.2220    -0.0020    -0.0820 hn         1 NNF       0.185500
     38 FAC          6.9200     4.5730    -8.5890 f          1 NNF      -0.127900
@<TRIPOS>BOND
     1     1    14 1   
     2     1    21 1   
     3     1    22 1   
     4     1    23 1   
     5     2    18 2   
     6     3     5 ar  
     7     3    15 ar  
     8     3    24 1   
     9     4     6 ar  
    10     4    15 ar  
    11     4    25 1   
    12     5    16 ar  
    13     5    26 1   
    14     6    16 ar  
    15     6    27 1   
    16     7    14 2   
    17     7    18 1   
    18     7    28 1   
    19     8    10 1   
    20     8    19 1   
    21     8    29 1   
    22     8    30 1   
    23     9    11 1   
    24     9    19 1   
    25     9    31 1   
    26     9    32 1   
    27    10    20 1   
    28    10    33 1   
    29    10    34 1   
    30    11    20 1   
    31    11    35 1   
    32    11    36 1   
    33    12    14 1   
    34    12    17 2   
    35    13    17 1   
    36    13    18 1   
    37    13    37 1   
    38    15    38 1   
    39    16    19 1   
    40    17    20 1   
@<TRIPOS>SUBSTRUCTURE
     1 NNF         1 TEMP              0 ****  ****    0 ROOT
