@<TRIPOS>MOLECULE
molecule
   38    40     1     0     0
SMALL
bcc


@<TRIPOS>ATOM
      1 CAA          0.0000     0.0000     0.0000 c3         1 NNF      -0.044900
      2 OAB          4.2360     0.0010     2.1940 o          1 NNF      -0.648500
      3 CAD          5.5870     2.7180    -7.9640 ca         1 NNF      -0.141500
      4 CAE          7.0330     3.7690    -6.3640 ca         1 NNF      -0.141500
      5 CAF          5.1730     1.8170    -7.0020 ca         1 NNF      -0.141500
      6 CAG          6.6220     2.8700    -5.3990 ca         1 NNF      -0.141500
      7 CAH          2.1890     0.0000     1.1820 cc         1 NNF      -0.379200
      8 CAI          5.9410     1.2390    -3.4580 c3         1 NNF       0.144800
      9 CAJ          3.8100     1.0030    -4.5910 c3         1 NNF       0.144800
     10 CAK          5.5970     0.1190    -2.4710 c3         1 NNF       0.237300
     11 CAL          3.3780    -0.1270    -3.6510 c3         1 NNF       0.237300
     12 NAM          2.1720    -0.0010    -1.1540 nd         1 NNF      -0.749300
     13 NAN          4.2220    -0.0010    -0.0400 ns         1 NNF      -0.478400
     14 CAO          1.5080     0.0000     0.0000 cd         1 NNF       0.237400
     15 CAP          6.5170     3.6930    -7.6460 ca         1 NNF       0.110900
     16 CAQ          5.6900     1.8910    -5.7150 ca         1 NNF       0.086600
     17 CAR          3.4900    -0.0030    -1.1860 cc         1 NNF       0.737800
     18 CAS          3.5950    -0.0000     1.1570 c          1 NNF       0.707700
     19 NAT          5.2720     0.9820    -4.7390 nh         1 NNF      -0.596000
     20 NAU          4.1320    -0.0030    -2.3940 nh         1 NNF      -0.784600
     21 HAA         -0.3610    -0.7970     0.6390 hc         1 NNF       0.055700
     22 HAAA        -0.3610     0.9520     0.3710 hc         1 NNF       0.055700
     23 HAAB        -0.3610    -0.1550    -1.0100 hc         1 NNF       0.055700
     24 HAD          5.1840     2.6610    -8.9680 ha         1 NNF       0.147500
     25 HAE          7.7610     4.5330    -6.1170 ha         1 NNF       0.147500
     26 HAF          4.4450     1.0540    -7.2510 ha         1 NNF       0.142500
     27 HAG          7.0270     2.9300    -4.3960 ha         1 NNF       0.142500
     28 HAH          1.6640     0.1940     2.1100 ha         1 NNF       0.165000
     29 HAI          5.6010     2.1870    -3.0590 h1         1 NNF       0.055950
     30 HAIA         7.0130     1.2680    -3.6100 h1         1 NNF       0.055950
     31 HAJ          3.3480     0.8620    -5.5610 h1         1 NNF       0.055950
     32 HAJA         3.5040     1.9550    -4.1740 h1         1 NNF       0.055950
     33 HAK          6.0210    -0.8150    -2.8200 h1         1 NNF       0.068950
     34 HAKA         5.9930     0.3620    -1.4920 h1         1 NNF       0.068950
     35 HAL          2.3170    -0.0440    -3.4470 h1         1 NNF       0.068950
     36 HALA         3.5930    -1.0840    -4.1110 h1         1 NNF       0.068950
     37 HNAN         5.2220    -0.0020    -0.0820 hn         1 NNF       0.330500
     38 FAC          6.9200     4.5730    -8.5890 f          1 NNF      -0.140900
@<TRIPOS>BOND
     1     1    14 1
     2     2    18 2
     3    38    15 1
     4     3     5 ar
     5     3    15 ar
     6     4     6 ar
     7     4    15 ar
     8     5    16 ar
     9     6    16 ar
    10     7    14 2
    11     7    18 1
    12     8    10 1
    13     8    19 1
    14     9    11 1
    15     9    19 1
    16    10    20 1
    17    11    20 1
    18    12    14 1
    19    12    17 2
    20    13    17 1
    21    13    18 1
    22    16    19 1
    23    17    20 1
    24     1    21 1
    25     1    22 1
    26     1    23 1
    27     3    24 1
    28     4    25 1
    29     5    26 1
    30     6    27 1
    31     7    28 1
    32     8    29 1
    33     8    30 1
    34     9    31 1
    35     9    32 1
    36    10    33 1
    37    10    34 1
    38    11    35 1
    39    11    36 1
    40    13    37 1
@<TRIPOS>SUBSTRUCTURE
     1 NNF         1 TEMP              0 ****  ****    0 ROOT
