@<TRIPOS>MOLECULE
NNG
   34    34     1     0     0
SMALL
bcc


@<TRIPOS>ATOM
      1 C1           0.0000     0.0000     0.0000 c3         1 NNG       0.351900
      2 C2           1.5320     0.0000     0.0000 c3         1 NNG       0.168500
      3 C3           2.0770     0.0000     1.4310 c3         1 NNG       0.152100
      4 C4           1.4360     1.1250     2.2480 c3         1 NNG       0.138100
      5 C5          -0.0920     1.1060     2.1190 c3         1 NNG       0.135100
      6 C6          -0.7390     2.3200     2.7810 c3         1 NNG       0.290400
      7 P7           2.2980    -0.9150    -2.3790 p5         1 NNG       0.475500
      8 C8           2.9410    -2.4830    -2.9620 c3         1 NNG      -0.034300
      9 N2           2.0530    -1.1120    -0.7610 n7         1 NNG      -0.581300
     10 O1          -0.4990    -1.2360     0.5080 oh         1 NNG      -0.622800
     11 O3           3.4890     0.2160     1.3830 oh         1 NNG      -0.583800
     12 O4           1.8200     0.9540     3.6100 oh         1 NNG      -0.596800
     13 O5          -0.4880     1.1200     0.7430 os         1 NNG      -0.365600
     14 O6          -2.1410     2.2330     2.6090 os         1 NNG      -0.475200
     15 O71          1.1310    -0.4580    -3.2110 o          1 NNG      -0.648000
     16 O72          3.5850     0.0540    -2.5830 o          1 NNG      -0.648000
     17 P           -3.0700     3.4080     3.2250 p5         1 NNG       0.669900
     18 O1P         -4.5440     3.2360     2.9960 o          1 NNG      -0.768500
     19 O2P         -2.4300     4.7630     2.6150 o          1 NNG      -0.768500
     20 O3P         -2.6200     3.4500     4.7770 o          1 NNG      -0.768500
     21 H1          -0.3350     0.1080    -1.0250 h2         1 NNG       0.036700
     22 H2           1.8610     0.9150    -0.4770 h1         1 NNG       0.057700
     23 H3           1.8650    -0.9540     1.8990 h1         1 NNG       0.003700
     24 H4           1.8070     2.0770     1.8880 h1         1 NNG       0.017700
     25 H5          -0.4710     0.2030     2.5830 h1         1 NNG       0.012700
     26 H61         -0.5010     2.3280     3.8380 h1         1 NNG      -0.008300
     27 H62         -0.3700     3.2270     2.3170 h1         1 NNG      -0.008300
     28 H81          3.1900    -2.4030    -4.0130 hc         1 NNG      -0.002300
     29 H82          2.1920    -3.2540    -2.8260 hc         1 NNG      -0.002300
     30 H83          3.8300    -2.7410    -2.3990 hc         1 NNG      -0.002300
     31 HN2          2.4480    -1.9010    -0.2870 hn         1 NNG       0.266800
     32 HO1         -1.3010    -1.4580     0.0640 ho         1 NNG       0.378000
     33 HO3          3.9190    -0.3900     1.9630 ho         1 NNG       0.356000
     34 HO4          2.4340     1.6280     3.8500 ho         1 NNG       0.371000
@<TRIPOS>BOND
     1     1     2 1   
     2     1    10 1   
     3     1    13 1   
     4     1    21 1   
     5     2     3 1   
     6     2     9 1   
     7     2    22 1   
     8     3     4 1   
     9     3    11 1   
    10     3    23 1   
    11     4     5 1   
    12     4    12 1   
    13     4    24 1   
    14     5     6 1   
    15     5    13 1   
    16     5    25 1   
    17     6    14 1   
    18     6    26 1   
    19     6    27 1   
    20     7     8 1   
    21     7     9 1   
    22     7    15 1   
    23     7    16 1   
    24     8    28 1   
    25     8    29 1   
    26     8    30 1   
    27     9    31 1   
    28    10    32 1   
    29    11    33 1   
    30    12    34 1   
    31    14    17 1   
    32    17    18 1   
    33    17    19 1   
    34    17    20 1   
@<TRIPOS>SUBSTRUCTURE
     1 NNG         1 TEMP              0 ****  ****    0 ROOT
