@<TRIPOS>MOLECULE
molecule
   37    39     1     0     0
SMALL
bcc


@<TRIPOS>ATOM
      1 C13          0.0000     0.0000     0.0000 ca         1 NNI      -0.170000
      2 C14          1.3920     0.0000     0.0000 ca         1 NNI      -0.066000
      3 C15          2.0930     0.0000     1.2030 ca         1 NNI       0.028900
      4 I15          4.1960    -0.0270     1.2280 i          1 NNI      -0.171900
      5 C16          1.3900    -0.0020     2.4030 ca         1 NNI      -0.066000
      6 C17          0.0020    -0.0020     2.4030 ca         1 NNI      -0.170000
      7 C12         -0.6960     0.0040     1.2030 ca         1 NNI       0.036600
      8 N2          -2.0260    -0.0030     1.2340 ns         1 NNI      -0.351100
      9 C11         -2.7780     0.2670     0.1700 cs         1 NNI       0.581500
     10 S1          -4.4030     0.2380     0.3150 s          1 NNI      -0.595400
     11 O3          -2.2100     0.5800    -1.0270 os         1 NNI      -0.355900
     12 C10         -3.1790     1.1530    -1.9270 c3         1 NNI       0.098400
     13 C9          -2.5080     1.4110    -3.2820 c3         1 NNI       0.114000
     14 N1          -1.3040     2.2360    -3.0890 n          1 NNI      -0.480400
     15 C8          -0.0740     1.7690    -2.9170 c          1 NNI       0.718100
     16 O2           0.2420     0.5780    -2.9090 o          1 NNI      -0.592000
     17 C2           0.8030     2.8330    -2.7460 ca         1 NNI      -0.158600
     18 C3           2.1730     2.9220    -2.5400 ca         1 NNI      -0.051000
     19 C4           2.7640     4.1720    -2.4080 ca         1 NNI      -0.110000
     20 C5           1.9920     5.3250    -2.4920 ca         1 NNI      -0.110000
     21 C6           0.6210     5.2370    -2.7000 ca         1 NNI      -0.051000
     22 C1           0.0340     3.9850    -2.8240 ca         1 NNI      -0.158600
     23 C7          -1.2700     3.5650    -3.0350 c          1 NNI       0.718100
     24 O1          -2.2350     4.3190    -3.1540 o          1 NNI      -0.592000
     25 H13         -0.5410     0.0020    -0.9390 ha         1 NNI       0.163500
     26 H14          1.9310    -0.0030    -0.9390 ha         1 NNI       0.150000
     27 H16          1.9290    -0.0050     3.3430 ha         1 NNI       0.150000
     28 H17         -0.5390    -0.0020     3.3420 ha         1 NNI       0.163500
     29 H2          -2.4830    -0.2230     2.0980 hn         1 NNI       0.373500
     30 H101        -3.5450     2.0870    -1.5190 h1         1 NNI       0.089200
     31 H102        -4.0050     0.4650    -2.0560 h1         1 NNI       0.089200
     32 H9C1        -2.2300     0.4660    -3.7320 h1         1 NNI       0.087700
     33 H9C2        -3.2010     1.9310    -3.9330 h1         1 NNI       0.087700
     34 H6           0.0180     6.1340    -2.7660 ha         1 NNI       0.154500
     35 H5           2.4600     6.2960    -2.3880 ha         1 NNI       0.145500
     36 H4           3.8320     4.2500    -2.2460 ha         1 NNI       0.145500
     37 H3           2.7750     2.0240    -2.4750 ha         1 NNI       0.154500
@<TRIPOS>BOND
     1     1     2 ar
     2     1     7 ar
     3     2     3 ar
     4     3     4 1
     5     3     5 ar
     6     5     6 ar
     7     6     7 ar
     8     7     8 1
     9     8     9 1
    10     9    10 2
    11     9    11 1
    12    11    12 1
    13    12    13 1
    14    13    14 1
    15    14    23 1
    16    14    15 1
    17    23    24 2
    18    23    22 1
    19    22    21 ar
    20    22    17 ar
    21    21    20 ar
    22    20    19 ar
    23    19    18 ar
    24    18    17 ar
    25    17    15 1
    26    15    16 2
    27     1    25 1
    28     2    26 1
    29     5    27 1
    30     6    28 1
    31     8    29 1
    32    12    30 1
    33    12    31 1
    34    13    32 1
    35    13    33 1
    36    21    34 1
    37    20    35 1
    38    19    36 1
    39    18    37 1
@<TRIPOS>SUBSTRUCTURE
     1 NNI         1 TEMP              0 ****  ****    0 ROOT
