@<TRIPOS>MOLECULE
molecule
   21    21     1     0     0
SMALL
bcc


@<TRIPOS>ATOM
      1 C12          0.0000     0.0000     0.0000 c3         1 NNJ       0.164100
      2 C13          1.5070     0.0000     0.0000 ca         1 NNJ      -0.198300
      3 C17          2.2060     0.0000     1.1920 ca         1 NNJ      -0.016300
      4 C19          4.2260    -0.0020     0.0840 ca         1 NNJ       0.007700
      5 C20          3.5950    -0.0060    -1.1460 ca         1 NNJ      -0.106000
      6 C21          2.2100    -0.0060    -1.1950 ca         1 NNJ       0.000000
      7 N26         -0.4890     1.3850    -0.0010 nz         1 NNJ      -0.812600
      8 N27          3.5250    -0.0000     1.2010 na         1 NNJ       0.084900
      9 H12         -0.3610    -0.5110    -0.8840 hx         1 NNJ       0.140200
     10 H12A        -0.3610    -0.5100     0.8850 hx         1 NNJ       0.140200
     11 H17          1.6650    -0.0030     2.1300 h4         1 NNJ       0.210000
     12 H18          5.2930    -0.1200     2.3140 h1         1 NNJ       0.115367
     13 H18A         3.8680    -0.8190     3.0960 h1         1 NNJ       0.115367
     14 H18B         4.0490     0.9380     2.9970 h1         1 NNJ       0.115367
     15 H19          5.3080    -0.0020     0.1310 h4         1 NNJ       0.237000
     16 H20          4.1760    -0.0100    -2.0600 ha         1 NNJ       0.227000
     17 H21          1.6890    -0.0100    -2.1450 ha         1 NNJ       0.197000
     18 HN26        -1.4880     1.3860    -0.0620 hn         1 NNJ       0.470800
     19 HN2A        -0.1060     1.8730    -0.7870 hn         1 NNJ       0.470800
     20 C18          4.2300    -0.0000     2.4860 c3         1 NNJ      -0.032400
     21 H263        -0.2060     1.8390     0.8440 hn         1 NNJ       0.470800
@<TRIPOS>BOND
     1     1     2 1
     2     1     7 1
     3     2     3 ar
     4     2     6 ar
     5     3     8 2
     6    20     8 1
     7     4     5 ar
     8     4     8 1
     9     5     6 ar
    10     1     9 1
    11     1    10 1
    12     3    11 1
    13    20    12 1
    14    20    13 1
    15    20    14 1
    16     4    15 1
    17     5    16 1
    18     6    17 1
    19     7    18 1
    20     7    19 1
    21    21     7 1
@<TRIPOS>SUBSTRUCTURE
     1 NNJ         1 TEMP              0 ****  ****    0 ROOT
