@<TRIPOS>MOLECULE
molecule
   21    21     1     0     0
SMALL
bcc


@<TRIPOS>ATOM
      1 N16          0.0000     0.0000     0.0000 nz         1 NNK      -0.811600
      2 C17          1.4700     0.0000     0.0000 c3         1 NNK       0.151100
      3 C18          1.9720     0.0000     1.4200 ca         1 NNK      -0.085300
      4 C22          2.2080    -1.1910     2.0900 ca         1 NNK      -0.112000
      5 C23          2.6690    -1.1520     3.3920 ca         1 NNK      -0.012800
      6 N24          2.8830     0.0010     3.9970 na         1 NNK       0.101900
      7 C25          3.3720     0.0010     5.3790 c3         1 NNK      -0.035400
      8 C26          2.6700     1.1520     3.3920 ca         1 NNK      -0.012800
      9 C27          2.2140     1.1910     2.0870 ca         1 NNK      -0.112000
     10 HN16        -0.3340     0.0090    -0.9440 hn         1 NNK       0.472467
     11 HN1A        -0.3340    -0.8220     0.4640 hn         1 NNK       0.472467
     12 H17          1.8310     0.8840    -0.5110 hx         1 NNK       0.142200
     13 H17A         1.8310    -0.8850    -0.5110 hx         1 NNK       0.142200
     14 H22          2.0340    -2.1400     1.5990 ha         1 NNK       0.203000
     15 H23          2.8550    -2.0780     3.9220 h4         1 NNK       0.234500
     16 H25          3.5120    -1.0200     5.7130 h1         1 NNK       0.118033
     17 H25A         4.3170     0.5300     5.4270 h1         1 NNK       0.118033
     18 H25B         2.6490     0.4950     6.0180 h1         1 NNK       0.118033
     19 H26          2.8590     2.0780     3.9210 h4         1 NNK       0.234500
     20 H27          2.0410     2.1400     1.5950 ha         1 NNK       0.203000
     21 H163        -0.3340     0.8360     0.4380 hn         1 NNK       0.472467
@<TRIPOS>BOND
     1     1     2 1
     2     2     3 1
     3     3     4 ar
     4     3     9 ar
     5     4     5 ar
     6     5     6 1
     7     6     7 1
     8     6     8 2
     9     8     9 ar
    10     1    10 1
    11     1    11 1
    12     2    12 1
    13     2    13 1
    14     4    14 1
    15     5    15 1
    16     7    16 1
    17     7    17 1
    18     7    18 1
    19     8    19 1
    20     9    20 1
    21    21     1 1
@<TRIPOS>SUBSTRUCTURE
     1 NNK         1 TEMP              0 ****  ****    0 ROOT
