@<TRIPOS>MOLECULE
NNL
   34    36     1     0     0
SMALL
bcc


@<TRIPOS>ATOM
      1 CAA          0.0000     0.0000     0.0000 c3         1 NNL      -0.042400
      2 CAC          0.4490     1.1980    -8.4190 ca         1 NNL      -0.095000
      3 CAD          0.4490    -1.1980    -8.4190 ca         1 NNL      -0.095000
      4 CAE          1.4410     1.1970    -7.4560 ca         1 NNL      -0.084000
      5 CAF          1.4410    -1.1970    -7.4560 ca         1 NNL      -0.084000
      6 CAG          4.8830     0.0000     0.8550 cc         1 NNL       0.174700
      7 CAH          1.7720    -0.0010    -1.7760 cc         1 NNL      -0.434300
      8 CAI          2.3820    -0.0000    -4.5350 c3         1 NNL       0.147800
      9 CAJ          3.0190     0.0000    -5.9260 c3         1 NNL       0.023900
     10 NAK          5.8750     0.0000     0.0000 nd         1 NNL      -0.339700
     11 NAL          5.4220     0.0010    -1.2050 nd         1 NNL      -0.061000
     12 NAM          2.3810    -0.0000     0.5000 nd         1 NNL      -0.689800
     13 NAN          3.4340     0.0000    -3.5160 nu         1 NNL      -0.348600
     14 CAO         -0.0480     0.0000    -8.9010 ca         1 NNL      -0.033600
     15 CAP          1.4480     0.0000    -0.4170 cc         1 NNL       0.515600
     16 CAQ          1.9370     0.0000    -6.9750 ca         1 NNL      -0.098300
     17 CAR          3.0950    -0.0010    -2.1690 cc         1 NNL       0.178600
     18 CAS          4.1000     0.0000    -1.1740 cc         1 NNL      -0.358300
     19 NAT          3.7320     0.0000     0.1490 na         1 NNL       0.612300
     20 HAA         -0.4800    -0.9010    -0.3620 hc         1 NNL       0.021033
     21 HAAA        -0.0650     0.0350     1.0810 hc         1 NNL       0.021033
     22 HAAB        -0.4960     0.8670    -0.4190 hc         1 NNL       0.021033
     23 HAC          0.0600     2.1360    -8.7950 ha         1 NNL       0.117000
     24 HAD          0.0610    -2.1360    -8.7960 ha         1 NNL       0.117000
     25 HAE          1.8290     2.1350    -7.0780 ha         1 NNL       0.110000
     26 HAF          1.8310    -2.1350    -7.0790 ha         1 NNL       0.110000
     27 HAG          4.9700    -0.0010     1.9350 h5         1 NNL       0.047800
     28 HAH          0.9860    -0.0580    -2.5200 ha         1 NNL       0.143000
     29 HAI          1.7670    -0.8850    -4.4200 h1         1 NNL       0.026700
     30 HAIA         1.7670     0.8850    -4.4200 h1         1 NNL       0.026700
     31 HAJ          3.6340    -0.8840    -6.0410 hc         1 NNL       0.026700
     32 HAJA         3.6340     0.8840    -6.0410 hc         1 NNL       0.026700
     33 HNAN         4.3960     0.0120    -3.7900 hn         1 NNL       0.314800
     34 Cl          -1.2940     0.0000   -10.1090 cl         1 NNL      -0.020400
@<TRIPOS>BOND
     1     1    15 1   
     2     1    20 1   
     3     1    21 1   
     4     1    22 1   
     5     2     4 ar  
     6     2    14 ar  
     7     2    23 1   
     8     3     5 ar  
     9     3    14 ar  
    10     3    24 1   
    11     4    16 ar  
    12     4    25 1   
    13     5    16 ar  
    14     5    26 1   
    15     6    10 2   
    16     6    19 1   
    17     6    27 1   
    18     7    15 1   
    19     7    17 2   
    20     7    28 1   
    21     8     9 1   
    22     8    13 1   
    23     8    29 1   
    24     8    30 1   
    25     9    16 1   
    26     9    31 1   
    27     9    32 1   
    28    10    11 1   
    29    11    18 2   
    30    12    15 2   
    31    12    19 1   
    32    13    17 1   
    33    13    33 1   
    34    14    34 1   
    35    17    18 1   
    36    18    19 1   
@<TRIPOS>SUBSTRUCTURE
     1 NNL         1 TEMP              0 ****  ****    0 ROOT
