@<TRIPOS>MOLECULE
molecule
   34    36     1     0     0
SMALL
bcc


@<TRIPOS>ATOM
      1 CAA          0.0000     0.0000     0.0000 c3         1 NNL      -0.133400
      2 CAC          0.4490     1.1980    -8.4190 ca         1 NNL      -0.118000
      3 CAD          0.4490    -1.1980    -8.4190 ca         1 NNL      -0.118000
      4 CAE          1.4410     1.1970    -7.4560 ca         1 NNL      -0.113500
      5 CAF          1.4410    -1.1970    -7.4560 ca         1 NNL      -0.113500
      6 CAG          4.8830     0.0000     0.8550 cc         1 NNL       0.356700
      7 CAH          1.7720    -0.0010    -1.7760 cc         1 NNL      -0.405300
      8 CAI          2.3820    -0.0000    -4.5350 c3         1 NNL       0.232800
      9 CAJ          3.0190     0.0000    -5.9260 c3         1 NNL      -0.051100
     10 NAK          5.8750     0.0000     0.0000 nd         1 NNL      -0.368700
     11 NAL          5.4220     0.0010    -1.2050 nd         1 NNL      -0.079000
     12 NAM          2.3810    -0.0000     0.5000 nd         1 NNL      -0.536800
     13 NAN          3.4340     0.0000    -3.5160 nu         1 NNL      -0.784600
     14 CAO         -0.0480     0.0000    -8.9010 ca         1 NNL       0.030400
     15 CAP          1.4480     0.0000    -0.4170 cc         1 NNL       0.464600
     16 CAQ          1.9370     0.0000    -6.9750 ca         1 NNL      -0.089300
     17 CAR          3.0950    -0.0010    -2.1690 cc         1 NNL       0.299600
     18 CAS          4.1000     0.0000    -1.1740 cc         1 NNL      -0.165300
     19 NAT          3.7320     0.0000     0.1490 na         1 NNL       0.112300
     20 HAA         -0.4800    -0.9010    -0.3620 hc         1 NNL       0.060367
     21 HAAA        -0.0650     0.0350     1.0810 hc         1 NNL       0.060367
     22 HAAB        -0.4960     0.8670    -0.4190 hc         1 NNL       0.060367
     23 HAC          0.0600     2.1360    -8.7950 ha         1 NNL       0.147000
     24 HAD          0.0610    -2.1360    -8.7960 ha         1 NNL       0.147000
     25 HAE          1.8290     2.1350    -7.0780 ha         1 NNL       0.139000
     26 HAF          1.8310    -2.1350    -7.0790 ha         1 NNL       0.139000
     27 HAG          4.9700    -0.0010     1.9350 h5         1 NNL       0.092800
     28 HAH          0.9860    -0.0580    -2.5200 ha         1 NNL       0.152000
     29 HAI          1.7670    -0.8850    -4.4200 h1         1 NNL       0.051200
     30 HAIA         1.7670     0.8850    -4.4200 h1         1 NNL       0.051200
     31 HAJ          3.6340    -0.8840    -6.0410 hc         1 NNL       0.060700
     32 HAJA         3.6340     0.8840    -6.0410 hc         1 NNL       0.060700
     33 HNAN         4.3960     0.0120    -3.7900 hn         1 NNL       0.463800
     34 Cl          -1.2940     0.0000   -10.1090 cl         1 NNL      -0.104400
@<TRIPOS>BOND
     1     1    15 1
     2    34    14 1
     3     2     4 ar
     4     2    14 ar
     5     3     5 ar
     6     3    14 ar
     7     4    16 ar
     8     5    16 ar
     9     6    10 2
    10     6    19 1
    11     7    15 1
    12     7    17 2
    13     8     9 1
    14     8    13 1
    15     9    16 1
    16    10    11 1
    17    11    18 2
    18    12    15 2
    19    12    19 1
    20    13    17 1
    21    17    18 1
    22    18    19 1
    23     1    20 1
    24     1    21 1
    25     1    22 1
    26     2    23 1
    27     3    24 1
    28     4    25 1
    29     5    26 1
    30     6    27 1
    31     7    28 1
    32     8    29 1
    33     8    30 1
    34     9    31 1
    35     9    32 1
    36    13    33 1
@<TRIPOS>SUBSTRUCTURE
     1 NNL         1 TEMP              0 ****  ****    0 ROOT
