@<TRIPOS>MOLECULE
NNN
   52    54     1     0     0
SMALL
bcc


@<TRIPOS>ATOM
      1 O1           0.0000     0.0000     0.0000 oh         1 NNN      -0.593800
      2 C15          1.4290     0.0000     0.0000 c3         1 NNN       0.212400
      3 C12          1.9390     0.0000     1.4420 c3         1 NNN       0.124500
      4 C13          1.3280     1.1810     2.1990 c3         1 NNN      -0.036400
      5 C14          1.9320     1.2550     3.6040 c3         1 NNN      -0.029100
      6 N2           1.5510    -1.2520     2.0970 nu         1 NNN      -0.453900
      7 C2           2.2850    -1.7280     3.1660 cc         1 NNN       0.770900
      8 N1           3.3440    -1.0340     3.5980 nc         1 NNN      -0.810000
      9 C6           4.0640    -1.4610     4.6160 cd         1 NNN       0.544400
     10 N5           3.7240    -2.6310     5.2390 na         1 NNN       0.276400
     11 N7           4.2660    -3.3380     6.3150 nc         1 NNN      -0.760100
     12 C8           3.5500    -4.4200     6.5170 cd         1 NNN       0.515500
     13 C9'          2.5190    -4.4590     5.5840 cd         1 NNN      -0.380800
     14 C9           1.4680    -5.5320     5.4630 c3         1 NNN       0.058500
     15 C10          2.1410    -6.8780     5.1930 c3         1 NNN       0.003900
     16 C11          0.6700    -5.6130     6.7670 c3         1 NNN       0.003900
     17 C4           2.6340    -3.3350     4.7870 cd         1 NNN       0.313500
     18 N3           1.9260    -2.8590     3.7490 nd         1 NNN      -0.753000
     19 N6           5.1470    -0.7400     5.0470 nu         1 NNN      -0.459900
     20 CA'          5.5080     0.5120     4.3760 c3         1 NNN       0.219100
     21 C1'          6.7260     1.1040     5.0380 ca         1 NNN      -0.133300
     22 C6'          6.5790     1.9780     6.0980 ca         1 NNN      -0.080500
     23 C5'          7.6960     2.5210     6.7050 ca         1 NNN      -0.100000
     24 C4'          8.9600     2.1900     6.2510 ca         1 NNN      -0.087000
     25 C3'          9.1060     1.3150     5.1910 ca         1 NNN      -0.100000
     26 C2'          7.9880     0.7680     4.5870 ca         1 NNN      -0.080500
     27 HO1         -0.3140     0.0350    -0.8880 ho         1 NNN       0.395000
     28 H15          1.7900     0.8840    -0.5110 h1         1 NNN      -0.006300
     29 H15A         1.7900    -0.8840    -0.5110 h1         1 NNN      -0.006300
     30 H12          3.0180     0.0890     1.4430 h1         1 NNN       0.054700
     31 H13          1.5400     2.1000     1.6670 hc         1 NNN       0.024200
     32 H13A         0.2560     1.0460     2.2740 hc         1 NNN       0.024200
     33 H14          3.0040     1.1120     3.5430 hc         1 NNN       0.013033
     34 H14A         1.4960     0.4810     4.2250 hc         1 NNN       0.013033
     35 H14B         1.7210     2.2260     4.0370 hc         1 NNN       0.013033
     36 HN2          0.7800    -1.7840     1.7440 hn         1 NNN       0.313800
     37 H8           3.7330    -5.1630     7.2840 h4         1 NNN       0.011800
     38 H9           0.7990    -5.2920     4.6450 hc         1 NNN       0.038700
     39 H10          2.8190    -6.7810     4.3540 hc         1 NNN       0.000533
     40 H10A         1.3850    -7.6190     4.9630 hc         1 NNN       0.000533
     41 H10B         2.6940    -7.1870     6.0720 hc         1 NNN       0.000533
     42 H11          0.3100    -4.6260     7.0310 hc         1 NNN       0.000533
     43 H11A        -0.1720    -6.2810     6.6330 hc         1 NNN       0.000533
     44 H11B         1.3090    -5.9890     7.5570 hc         1 NNN       0.000533
     45 HN6          5.7080    -1.0830     5.8020 hn         1 NNN       0.320800
     46 HA'          5.7240     0.3130     3.3330 h1         1 NNN       0.034700
     47 HA'A         4.6830     1.2100     4.4460 h1         1 NNN       0.034700
     48 H6'          5.5890     2.2380     6.4530 ha         1 NNN       0.108500
     49 H5'          7.5810     3.2070     7.5360 ha         1 NNN       0.106000
     50 H4'          9.8350     2.6170     6.7250 ha         1 NNN       0.105000
     51 H3'         10.0960     1.0540     4.8360 ha         1 NNN       0.106000
     52 H2'          8.1020     0.0830     3.7560 ha         1 NNN       0.108500
@<TRIPOS>BOND
     1     1     2 1   
     2     1    27 1   
     3     2     3 1   
     4     2    28 1   
     5     2    29 1   
     6     3     4 1   
     7     3     6 1   
     8     3    30 1   
     9     4     5 1   
    10     4    31 1   
    11     4    32 1   
    12     5    33 1   
    13     5    34 1   
    14     5    35 1   
    15     6     7 1   
    16     6    36 1   
    17     7     8 1   
    18     7    18 2   
    19     8     9 2   
    20     9    10 1   
    21     9    19 1   
    22    10    11 1   
    23    10    17 1   
    24    11    12 2   
    25    12    13 1   
    26    12    37 1   
    27    13    14 1   
    28    13    17 2   
    29    14    15 1   
    30    14    16 1   
    31    14    38 1   
    32    15    39 1   
    33    15    40 1   
    34    15    41 1   
    35    16    42 1   
    36    16    43 1   
    37    16    44 1   
    38    17    18 1   
    39    19    20 1   
    40    19    45 1   
    41    20    21 1   
    42    20    46 1   
    43    20    47 1   
    44    21    22 ar  
    45    21    26 ar  
    46    22    23 ar  
    47    22    48 1   
    48    23    24 ar  
    49    23    49 1   
    50    24    25 ar  
    51    24    50 1   
    52    25    26 ar  
    53    25    51 1   
    54    26    52 1   
@<TRIPOS>SUBSTRUCTURE
     1 NNN         1 TEMP              0 ****  ****    0 ROOT
