@<TRIPOS>MOLECULE
molecule
   15    15     1     0     0
SMALL
bcc


@<TRIPOS>ATOM
      1 N1           0.0000     0.0000     0.0000 na         1 NNO       0.092600
      2 C2           1.3170     0.0000     0.0000 ca         1 NNO      -0.058300
      3 C3           2.0280     0.0000     1.2020 ca         1 NNO      -0.120600
      4 C4           1.3180     0.0130     2.4120 ca         1 NNO      -0.086000
      5 C5          -0.0610     0.0190     2.3620 ca         1 NNO      -0.195000
      6 C6          -0.6980     0.0130     1.1260 ca         1 NNO       0.090800
      7 C7           3.5030    -0.0080     1.2000 c          1 NNO       0.883200
      8 O1           4.1120    -0.0020     2.2500 o          1 NNO      -0.817800
      9 O2           4.1750    -0.0200     0.0320 o          1 NNO      -0.817800
     10 O4          -2.0530     0.0190     1.0720 oh         1 NNO      -0.488100
     11 O3          -0.6890    -0.0070    -1.2380 o          1 NNO      -0.418000
     12 H2           1.8530    -0.0110    -0.9410 h4         1 NNO       0.217000
     13 H4           1.8390     0.0160     3.3610 ha         1 NNO       0.164000
     14 H5          -0.6410     0.0300     3.2770 ha         1 NNO       0.138000
     15 HO4         -2.3700     0.8950     1.2180 ho         1 NNO       0.416000
@<TRIPOS>BOND
     1     1     2 1
     2     1     6 2
     3     1    11 1
     4     2     3 ar
     5     2    12 1
     6     3     4 ar
     7     3     7 1
     8     4     5 ar
     9     4    13 1
    10     5     6 ar
    11     5    14 1
    12     6    10 1
    13     7     8 1
    14     7     9 1
    15    10    15 1
@<TRIPOS>SUBSTRUCTURE
     1 NNO         1 TEMP              0 ****  ****    0 ROOT
