@<TRIPOS>MOLECULE
NNO
   15    15     1     0     0
SMALL
bcc


@<TRIPOS>ATOM
      1 N1         -0.0730    0.1680    0.0170 na        1 NNO      0.155600
      2 C2          1.3070    0.0960    0.0250 ca        1 NNO     -0.125300
      3 C3          2.0360   -0.0140    1.2130 ca        1 NNO     -0.138600
      4 C4          1.3660   -0.0530    2.4400 ca        1 NNO     -0.100000
      5 C5         -0.0230    0.0170    2.4680 ca        1 NNO     -0.153000
      6 C6         -0.7230    0.1270    1.2560 ca        1 NNO      0.020800
      7 C7          3.5620   -0.0890    1.1530 c         1 NNO      0.919200
      8 O1          4.1750   -0.1860    2.2500 o         1 NNO     -0.815300
      9 O2          4.1030   -0.0490    0.0150 o         1 NNO     -0.815300
     10 O4         -2.1000    0.1960    1.2960 oh        1 NNO     -0.511100
     11 O3         -0.7540    0.2650   -1.0180 o         1 NNO     -0.399000
     12 H2          1.8130    0.1290   -0.9590 h4        1 NNO      0.205000
     13 H4          1.9600   -0.1390    3.3630 ha        1 NNO      0.168000
     14 H5         -0.5970   -0.0090    3.4030 ha        1 NNO      0.143000
     15 HO4        -2.4310    0.2680    0.3810 ho        1 NNO      0.447000
@<TRIPOS>BOND
     1    1    2 1   
     2    1    6 2   
     3    1   11 1   
     4    2    3 ar  
     5    2   12 1   
     6    3    4 ar  
     7    3    7 1   
     8    4    5 ar  
     9    4   13 1   
    10    5    6 ar  
    11    5   14 1   
    12    6   10 1   
    13    7    8 1   
    14    7    9 1   
    15   10   15 1   
@<TRIPOS>SUBSTRUCTURE
     1 NNO         1 TEMP              0 ****  ****    0 ROOT
