@<TRIPOS>MOLECULE
molecule
   45    46     1     0     0
SMALL
bcc


@<TRIPOS>ATOM
      1 CAA          0.0000     0.0000     0.0000 c3         1 NNQ      -0.092100
      2 CAH          1.5310     0.0000     0.0000 c3         1 NNQ      -0.084400
      3 CAI          2.0400     0.0000     1.4430 c3         1 NNQ      -0.081400
      4 CAJ          3.5710    -0.0000     1.4430 c3         1 NNQ      -0.082400
      5 CAK          4.0810    -0.0010     2.8850 c3         1 NNQ      -0.081400
      6 CAL          5.6110    -0.0010     2.8850 c3         1 NNQ      -0.081400
      7 CAM          6.1210    -0.0010     4.3270 c3         1 NNQ      -0.082400
      8 CAN          7.6510    -0.0020     4.3270 c3         1 NNQ      -0.080400
      9 CAO          8.1610    -0.0020     5.7700 c3         1 NNQ      -0.056200
     10 CAQ          9.6670    -0.0010     5.7690 cc         1 NNQ       0.159800
     11 CAG         10.3170     1.1770     5.8780 cd         1 NNQ      -0.337200
     12 CAR         11.7310     1.2090     5.8870 c          1 NNQ       0.587900
     13 OAB         12.3360     2.2640     5.9850 o          1 NNQ      -0.571100
     14 CAT         12.4480    -0.0730     5.7740 ca         1 NNQ      -0.203600
     15 CAF         13.8420    -0.1300     5.7760 ca         1 NNQ      -0.036000
     16 CAD         14.4690    -1.3400     5.6690 ca         1 NNQ      -0.176000
     17 CAC         13.7310    -2.5110     5.5620 ca         1 NNQ      -0.071000
     18 CAE         12.3530    -2.4760     5.5590 ca         1 NNQ      -0.197000
     19 CAS         11.6940    -1.2550     5.6660 ca         1 NNQ       0.179600
     20 NAP         10.3190    -1.1850     5.6660 na         1 NNQ      -0.601400
     21 H1          -0.3610    -0.8840     0.5110 hc         1 NNQ       0.032700
     22 H2          -0.3610    -0.0000    -1.0210 hc         1 NNQ       0.032700
     23 H3          -0.3610     0.8850     0.5100 hc         1 NNQ       0.032700
     24 H4           1.8920    -0.8850    -0.5110 hc         1 NNQ       0.040200
     25 H5           1.8920     0.8850    -0.5110 hc         1 NNQ       0.040200
     26 H6           1.6790    -0.8850     1.9530 hc         1 NNQ       0.041200
     27 H7           1.6790     0.8850     1.9530 hc         1 NNQ       0.041200
     28 H8           3.9320    -0.8840     0.9320 hc         1 NNQ       0.041700
     29 H9           3.9320     0.8850     0.9320 hc         1 NNQ       0.041700
     30 H10          3.7190    -0.8850     3.3950 hc         1 NNQ       0.041700
     31 H11          3.7200     0.8840     3.3960 hc         1 NNQ       0.041700
     32 H12          5.9720     0.8830     2.3740 hc         1 NNQ       0.043700
     33 H13          5.9720    -0.8860     2.3750 hc         1 NNQ       0.043700
     34 H14          5.7600     0.8840     4.8380 hc         1 NNQ       0.042700
     35 H15          5.7590    -0.8850     4.8380 hc         1 NNQ       0.042700
     36 H16          8.0120    -0.8860     3.8170 hc         1 NNQ       0.049700
     37 H17          8.0130     0.8830     3.8160 hc         1 NNQ       0.049700
     38 H18          7.8000    -0.8860     6.2800 hc         1 NNQ       0.061700
     39 H19          7.8000     0.8830     6.2810 hc         1 NNQ       0.061700
     40 H20          9.7540     2.0980     5.9720 ha         1 NNQ       0.162000
     41 H21         14.4240     0.7790     5.8590 ha         1 NNQ       0.158000
     42 H22         15.5510    -1.3860     5.6700 ha         1 NNQ       0.135000
     43 H23         14.2430    -3.4620     5.4780 ha         1 NNQ       0.132000
     44 H24         11.7860    -3.3950     5.4740 ha         1 NNQ       0.130000
     45 H25          9.7870    -2.0300     5.5890 hn         1 NNQ       0.447800
@<TRIPOS>BOND
     1     1     2 1
     2    13    12 2
     3    15    16 ar
     4    15    14 ar
     5     2     3 1
     6    16    17 ar
     7    12    14 1
     8    12    11 1
     9    14    19 ar
    10    17    18 ar
    11     3     4 1
    12     4     5 1
    13    11    10 2
    14     5     6 1
    15    19    18 ar
    16    19    20 1
    17    10    20 1
    18    10     9 1
    19     6     7 1
    20     8     9 1
    21     8     7 1
    22     1    21 1
    23     1    22 1
    24     1    23 1
    25     2    24 1
    26     2    25 1
    27     3    26 1
    28     3    27 1
    29     4    28 1
    30     4    29 1
    31     5    30 1
    32     5    31 1
    33     6    32 1
    34     6    33 1
    35     7    34 1
    36     7    35 1
    37     8    36 1
    38     8    37 1
    39     9    38 1
    40     9    39 1
    41    11    40 1
    42    15    41 1
    43    16    42 1
    44    17    43 1
    45    18    44 1
    46    20    45 1
@<TRIPOS>SUBSTRUCTURE
     1 NNQ         1 TEMP              0 ****  ****    0 ROOT
