@<TRIPOS>MOLECULE
NNQ
   45    46     1     0     0
SMALL
bcc


@<TRIPOS>ATOM
      1 CAA          0.0000     0.0000     0.0000 c3         1 NNQ       0.006900
      2 CAH          1.5310     0.0000     0.0000 c3         1 NNQ      -0.028400
      3 CAI          2.0400     0.0000     1.4430 c3         1 NNQ      -0.029400
      4 CAJ          3.5710    -0.0000     1.4430 c3         1 NNQ      -0.029400
      5 CAK          4.0810    -0.0010     2.8850 c3         1 NNQ      -0.028400
      6 CAL          5.6110    -0.0010     2.8850 c3         1 NNQ      -0.028400
      7 CAM          6.1210    -0.0010     4.3270 c3         1 NNQ      -0.028400
      8 CAN          7.6510    -0.0020     4.3270 c3         1 NNQ      -0.028400
      9 CAO          8.1610    -0.0020     5.7700 c3         1 NNQ       0.016800
     10 CAQ          9.6670    -0.0010     5.7690 cc         1 NNQ      -0.024200
     11 CAG         10.3170     1.1770     5.8780 cd         1 NNQ      -0.317200
     12 CAR         11.7310     1.2090     5.8870 c          1 NNQ       0.638900
     13 OAB         12.3360     2.2640     5.9850 o          1 NNQ      -0.608100
     14 CAT         12.4480    -0.0730     5.7740 ca         1 NNQ      -0.203600
     15 CAF         13.8420    -0.1300     5.7760 ca         1 NNQ       0.000000
     16 CAD         14.4690    -1.3400     5.6690 ca         1 NNQ      -0.152000
     17 CAC         13.7310    -2.5110     5.5620 ca         1 NNQ      -0.039000
     18 CAE         12.3530    -2.4760     5.5590 ca         1 NNQ      -0.171000
     19 CAS         11.6940    -1.2550     5.6660 ca         1 NNQ       0.008600
     20 NAP         10.3190    -1.1850     5.6660 na         1 NNQ      -0.085400
     21 H1          -0.3610    -0.8840     0.5110 hc         1 NNQ       0.000367
     22 H2          -0.3610    -0.0000    -1.0210 hc         1 NNQ       0.000367
     23 H3          -0.3610     0.8850     0.5100 hc         1 NNQ       0.000367
     24 H4           1.8920    -0.8850    -0.5110 hc         1 NNQ       0.012200
     25 H5           1.8920     0.8850    -0.5110 hc         1 NNQ       0.012200
     26 H6           1.6790    -0.8850     1.9530 hc         1 NNQ       0.015200
     27 H7           1.6790     0.8850     1.9530 hc         1 NNQ       0.015200
     28 H8           3.9320    -0.8840     0.9320 hc         1 NNQ       0.015200
     29 H9           3.9320     0.8850     0.9320 hc         1 NNQ       0.015200
     30 H10          3.7190    -0.8850     3.3950 hc         1 NNQ       0.014700
     31 H11          3.7200     0.8840     3.3960 hc         1 NNQ       0.014700
     32 H12          5.9720     0.8830     2.3740 hc         1 NNQ       0.016200
     33 H13          5.9720    -0.8860     2.3750 hc         1 NNQ       0.016200
     34 H14          5.7600     0.8840     4.8380 hc         1 NNQ       0.016200
     35 H15          5.7590    -0.8850     4.8380 hc         1 NNQ       0.016200
     36 H16          8.0120    -0.8860     3.8170 hc         1 NNQ       0.019700
     37 H17          8.0130     0.8830     3.8160 hc         1 NNQ       0.019700
     38 H18          7.8000    -0.8860     6.2800 hc         1 NNQ       0.027700
     39 H19          7.8000     0.8830     6.2810 hc         1 NNQ       0.027700
     40 H20          9.7540     2.0980     5.9720 ha         1 NNQ       0.141000
     41 H21         14.4240     0.7790     5.8590 ha         1 NNQ       0.125000
     42 H22         15.5510    -1.3860     5.6700 ha         1 NNQ       0.108000
     43 H23         14.2430    -3.4620     5.4780 ha         1 NNQ       0.100000
     44 H24         11.7860    -3.3950     5.4740 ha         1 NNQ       0.108000
     45 H25          9.7870    -2.0300     5.5890 hn         1 NNQ       0.274800
@<TRIPOS>BOND
     1     1     2 1   
     2     1    21 1   
     3     1    22 1   
     4     1    23 1   
     5     2     3 1   
     6     2    24 1   
     7     2    25 1   
     8     3     4 1   
     9     3    26 1   
    10     3    27 1   
    11     4     5 1   
    12     4    28 1   
    13     4    29 1   
    14     5     6 1   
    15     5    30 1   
    16     5    31 1   
    17     6     7 1   
    18     6    32 1   
    19     6    33 1   
    20     7     8 1   
    21     7    34 1   
    22     7    35 1   
    23     8     9 1   
    24     8    36 1   
    25     8    37 1   
    26     9    10 1   
    27     9    38 1   
    28     9    39 1   
    29    10    11 2   
    30    10    20 1   
    31    11    12 1   
    32    11    40 1   
    33    12    13 2   
    34    12    14 1   
    35    14    15 ar  
    36    14    19 ar  
    37    15    16 ar  
    38    15    41 1   
    39    16    17 ar  
    40    16    42 1   
    41    17    18 ar  
    42    17    43 1   
    43    18    19 ar  
    44    18    44 1   
    45    19    20 1   
    46    20    45 1   
@<TRIPOS>SUBSTRUCTURE
     1 NNQ         1 TEMP              0 ****  ****    0 ROOT
