@<TRIPOS>MOLECULE
molecule
   34    35     1     0     0
SMALL
bcc


@<TRIPOS>ATOM
      1 O2R          0.0000     0.0000     0.0000 oh         1 NNR      -0.567800
      2 C2R          1.4290     0.0000     0.0000 c3         1 NNR       0.093100
      3 C3R          1.9810     0.0000     1.4460 c3         1 NNR       0.105100
      4 O3R          0.9880     0.4660     2.3610 oh         1 NNR      -0.559800
      5 C4R          3.1710     0.9780     1.3960 c3         1 NNR       0.115100
      6 C5R          4.4540     0.2600     1.8220 c3         1 NNR       0.144400
      7 O5R          5.5270     1.2000     1.8840 oh         1 NNR      -0.593800
      8 O4R          3.2930     1.4330     0.0370 os         1 NNR      -0.392600
      9 C1R          1.9820     1.3350    -0.5590 c3         1 NNR       0.177800
     10 N1           2.0830     1.2810    -2.0190 na         1 NNR       0.078900
     11 C2           1.1410     1.8450    -2.7470 ca         1 NNR       0.070700
     12 C6           3.1180     0.6730    -2.5680 ca         1 NNR       0.041700
     13 C5           3.2550     0.5970    -3.9420 ca         1 NNR      -0.119000
     14 C4           2.2900     1.1700    -4.7520 ca         1 NNR      -0.014000
     15 C3           1.2070     1.8110    -4.1410 ca         1 NNR      -0.233600
     16 C7           0.1470     2.4400    -4.9580 c          1 NNR       0.514700
     17 O7          -0.7900     2.9950    -4.4160 o          1 NNR      -0.355100
     18 N7           0.2180     2.3980    -6.3020 nz         1 NNR      -0.678400
     19 HO2R        -0.3140    -0.8750    -0.1560 ho         1 NNR       0.437000
     20 H2R          1.8210    -0.8410    -0.5590 h1         1 NNR       0.056700
     21 H3R          2.3210    -0.9920     1.7190 h1         1 NNR       0.079700
     22 HO3R         0.9100    -0.1420     3.0770 ho         1 NNR       0.438000
     23 H4R          2.9800     1.8210     2.0490 h1         1 NNR       0.121700
     24 H5R1         4.3090    -0.1890     2.7980 h1         1 NNR       0.043700
     25 H5R2         4.6920    -0.5130     1.1010 h1         1 NNR       0.043700
     26 HO5R         6.2360     0.8350     2.3880 ho         1 NNR       0.433000
     27 H1R          1.3600     2.1640    -0.2440 h2         1 NNR       0.148700
     28 H2           0.3090     2.3380    -2.2600 h4         1 NNR       0.244000
     29 H6           3.8720     0.2250    -1.9320 h4         1 NNR       0.248000
     30 H5           4.1080     0.0940    -4.3800 ha         1 NNR       0.224000
     31 H4           2.3720     1.1250    -5.8320 ha         1 NNR       0.167000
     32 HN71        -0.5750     2.8680    -6.6930 hn         1 NNR       0.495133
     33 HN72         0.2250     1.4450    -6.6070 hn         1 NNR       0.495133
     34 H73          1.0570     2.8510    -6.6060 hn         1 NNR       0.495133
@<TRIPOS>BOND
     1    13    12 ar
     2    13    14 ar
     3    12    10 2
     4    14    15 ar
     5     1     2 1
     6    10     9 1
     7    10    11 1
     8    15    11 ar
     9    15    16 1
    10     9     2 1
    11     9     8 1
    12     2     3 1
    13    16    17 2
    14    16    18 1
    15     4     3 1
    16     8     5 1
    17     3     5 1
    18     5     6 1
    19     6     7 1
    20     1    19 1
    21     2    20 1
    22     3    21 1
    23     4    22 1
    24     5    23 1
    25     6    24 1
    26     6    25 1
    27     7    26 1
    28     9    27 1
    29    11    28 1
    30    12    29 1
    31    13    30 1
    32    14    31 1
    33    18    32 1
    34    18    33 1
    35    34    18 1
@<TRIPOS>SUBSTRUCTURE
     1 NNR         1 TEMP              0 ****  ****    0 ROOT
