@<TRIPOS>MOLECULE
NNR
   34    35     1     0     0
SMALL
bcc


@<TRIPOS>ATOM
      1 O2R          0.0000     0.0000     0.0000 oh         1 NNR      -0.550800
      2 C2R          1.4290     0.0000     0.0000 c3         1 NNR       0.139100
      3 C3R          1.9810     0.0000     1.4460 c3         1 NNR       0.146100
      4 O3R          0.9880     0.4660     2.3610 oh         1 NNR      -0.542800
      5 C4R          3.1710     0.9780     1.3960 c3         1 NNR       0.151100
      6 C5R          4.4540     0.2600     1.8220 c3         1 NNR       0.225400
      7 O5R          5.5270     1.2000     1.8840 oh         1 NNR      -0.581800
      8 O4R          3.2930     1.4330     0.0370 os         1 NNR      -0.377600
      9 C1R          1.9820     1.3350    -0.5590 c3         1 NNR       0.036800
     10 N1           2.0830     1.2810    -2.0190 na         1 NNR       0.670900
     11 C2           1.1410     1.8450    -2.7470 ca         1 NNR      -0.133300
     12 C6           3.1180     0.6730    -2.5680 ca         1 NNR      -0.162300
     13 C5           3.2550     0.5970    -3.9420 ca         1 NNR      -0.018000
     14 C4           2.2900     1.1700    -4.7520 ca         1 NNR      -0.009000
     15 C3           1.2070     1.8110    -4.1410 ca         1 NNR      -0.196600
     16 C7           0.1470     2.4400    -4.9580 c          1 NNR       0.348700
     17 O7          -0.7900     2.9950    -4.4160 o          1 NNR      -0.354100
     18 N7           0.2180     2.3980    -6.3020 nz         1 NNR       0.210600
     19 HO2R        -0.3140    -0.8750    -0.1560 ho         1 NNR       0.421000
     20 H2R          1.8210    -0.8410    -0.5590 h1         1 NNR       0.017700
     21 H3R          2.3210    -0.9920     1.7190 h1         1 NNR       0.039700
     22 HO3R         0.9100    -0.1420     3.0770 ho         1 NNR       0.421000
     23 H4R          2.9800     1.8210     2.0490 h1         1 NNR       0.079700
     24 H5R1         4.3090    -0.1890     2.7980 h1         1 NNR       0.002700
     25 H5R2         4.6920    -0.5130     1.1010 h1         1 NNR       0.002700
     26 HO5R         6.2360     0.8350     2.3880 ho         1 NNR       0.419000
     27 H1R          1.3600     2.1640    -0.2440 h2         1 NNR       0.106700
     28 H2           0.3090     2.3380    -2.2600 h4         1 NNR       0.202000
     29 H6           3.8720     0.2250    -1.9320 h4         1 NNR       0.206000
     30 H5           4.1080     0.0940    -4.3800 ha         1 NNR       0.175000
     31 H4           2.3720     1.1250    -5.8320 ha         1 NNR       0.126000
     32 HN71        -0.5750     2.8680    -6.6930 hn         1 NNR       0.259800
     33 HN72         0.2250     1.4450    -6.6070 hn         1 NNR       0.259800
     34 H73          1.0570     2.8510    -6.6060 hn         1 NNR       0.259800
@<TRIPOS>BOND
     1     1     2 1   
     2     1    19 1   
     3     2     3 1   
     4     2     9 1   
     5     2    20 1   
     6     3     4 1   
     7     3     5 1   
     8     3    21 1   
     9     4    22 1   
    10     5     6 1   
    11     5     8 1   
    12     5    23 1   
    13     6     7 1   
    14     6    24 1   
    15     6    25 1   
    16     7    26 1   
    17     8     9 1   
    18     9    10 1   
    19     9    27 1   
    20    10    11 1   
    21    10    12 2   
    22    11    15 ar  
    23    11    28 1   
    24    12    13 ar  
    25    12    29 1   
    26    13    14 ar  
    27    13    30 1   
    28    14    15 ar  
    29    14    31 1   
    30    15    16 1   
    31    16    17 2   
    32    16    18 1   
    33    18    32 1   
    34    18    33 1   
    35    18    34 1   
@<TRIPOS>SUBSTRUCTURE
     1 NNR         1 TEMP              0 ****  ****    0 ROOT
