@<TRIPOS>MOLECULE
NNS
   20    20     1     0     0
SMALL
bcc


@<TRIPOS>ATOM
      1 C            0.0000     0.0000     0.0000 c3         1 NNS      -0.068100
      2 C1           3.5780    -0.1170    -1.1680 ca         1 NNS      -0.104400
      3 C2           4.2050    -0.9480    -0.2500 ca         1 NNS      -0.092500
      4 C3           5.5810    -1.0650    -0.2530 ca         1 NNS      -0.121000
      5 C4           6.3350    -0.3520    -1.1730 ca         1 NNS       0.113100
      6 O            7.6910    -0.4660    -1.1750 oh         1 NNS      -0.502100
      7 C5           5.7090     0.4790    -2.0890 ca         1 NNS      -0.121000
      8 C6           4.3320     0.5910    -2.0920 ca         1 NNS      -0.092500
      9 N            2.1810     0.0000    -1.1660 ns         1 NNS      -0.042100
     10 C7           1.5070     0.0000     0.0000 c          1 NNS       0.558100
     11 O1           2.1130     0.0000     1.0510 o          1 NNS      -0.634100
     12 H11         -0.3610     0.9670    -0.3280 hc         1 NNS       0.024033
     13 H12         -0.3610    -0.1990     1.0020 hc         1 NNS       0.024033
     14 H13         -0.3610    -0.7680    -0.6730 hc         1 NNS       0.024033
     15 H2           3.6160    -1.5030     0.4700 ha         1 NNS       0.119500
     16 H3           6.0710    -1.7130     0.4630 ha         1 NNS       0.114500
     17 H4           8.0580     0.1350    -0.5490 ho         1 NNS       0.403000
     18 H5           6.2980     1.0330    -2.8090 ha         1 NNS       0.114500
     19 H6           3.8430     1.2400    -2.8080 ha         1 NNS       0.119500
     20 H1           1.6840     0.0710    -2.0320 hn         1 NNS       0.167500
@<TRIPOS>BOND
     1     1    10 1   
     2     1    12 1   
     3     1    13 1   
     4     1    14 1   
     5     2     3 ar  
     6     2     8 ar  
     7     2     9 1   
     8     3     4 ar  
     9     3    15 1   
    10     4     5 ar  
    11     4    16 1   
    12     5     6 1   
    13     5     7 ar  
    14     6    17 1   
    15     7     8 ar  
    16     7    18 1   
    17     8    19 1   
    18     9    10 1   
    19     9    20 1   
    20    10    11 2   
@<TRIPOS>SUBSTRUCTURE
     1 NNS         1 TEMP              0 ****  ****    0 ROOT
