@<TRIPOS>MOLECULE
NNT
   21    21     1     0     0
SMALL
bcc


@<TRIPOS>ATOM
      1 C12          0.0000     0.0000     0.0000 c3         1 NNT       0.031100
      2 C13          1.5070     0.0000     0.0000 ca         1 NNT      -0.156300
      3 C17          2.2060     0.0000     1.1910 ca         1 NNT      -0.200300
      4 C19          4.2260    -0.0000     0.0820 ca         1 NNT      -0.192300
      5 C20          3.5970    -0.0060    -1.1480 ca         1 NNT      -0.005000
      6 C21          2.2110    -0.0060    -1.1970 ca         1 NNT      -0.030600
      7 N24         -0.4900     1.3380    -0.3590 nz         1 NNT       0.082400
      8 N25          3.5250     0.0000     1.2000 na         1 NNT       0.676900
      9 Cl28         1.3750    -0.0140    -2.7190 cl         1 NNT       0.170600
     10 H12         -0.3610    -0.2640     0.9870 hx         1 NNT       0.105700
     11 H12A        -0.3610    -0.7230    -0.7220 hx         1 NNT       0.105700
     12 H17          1.6650    -0.0020     2.1300 h4         1 NNT       0.181000
     13 H18          5.2980    -0.0450     2.3090 h1         1 NNT       0.080033
     14 H18A         3.9220    -0.8620     3.0640 h1         1 NNT       0.080033
     15 H18B         3.9910     0.9060     3.0270 h1         1 NNT       0.080033
     16 H19          5.3090    -0.0000     0.1300 h4         1 NNT       0.197000
     17 H20          4.1790    -0.0090    -2.0620 ha         1 NNT       0.182000
     18 HN24         0.0280     2.0300     0.1450 hn         1 NNT       0.235800
     19 HN2A        -1.4600     1.4120    -0.1260 hn         1 NNT       0.235800
     20 C18          4.2300    -0.0000     2.4830 c3         1 NNT      -0.096400
     21 H243        -0.3710     1.4840    -1.3420 hn         1 NNT       0.235800
@<TRIPOS>BOND
     1     1     2 1   
     2     1     7 1   
     3     1    10 1   
     4     1    11 1   
     5     2     3 ar  
     6     2     6 ar  
     7     3     8 2   
     8     3    12 1   
     9     4     5 ar  
    10     4     8 1   
    11     4    16 1   
    12     5     6 ar  
    13     5    17 1   
    14     6     9 1   
    15     7    18 1   
    16     7    19 1   
    17     7    21 1   
    18     8    20 1   
    19    13    20 1   
    20    14    20 1   
    21    15    20 1   
@<TRIPOS>SUBSTRUCTURE
     1 NNT         1 TEMP              0 ****  ****    0 ROOT
