@<TRIPOS>MOLECULE
molecule
   21    21     1     0     0
SMALL
bcc


@<TRIPOS>ATOM
      1 C12          0.0000     0.0000     0.0000 c3         1 NNT       0.165100
      2 C13          1.5070     0.0000     0.0000 ca         1 NNT      -0.201300
      3 C17          2.2060     0.0000     1.1910 ca         1 NNT       0.004700
      4 C19          4.2260    -0.0000     0.0820 ca         1 NNT       0.015700
      5 C20          3.5970    -0.0060    -1.1480 ca         1 NNT      -0.106000
      6 C21          2.2110    -0.0060    -1.1970 ca         1 NNT       0.109400
      7 N24         -0.4900     1.3380    -0.3590 nz         1 NNT      -0.812600
      8 N25          3.5250     0.0000     1.2000 na         1 NNT       0.077900
      9 Cl28         1.3750    -0.0140    -2.7190 cl         1 NNT       0.038600
     10 H12         -0.3610    -0.2640     0.9870 hx         1 NNT       0.141700
     11 H12A        -0.3610    -0.7230    -0.7220 hx         1 NNT       0.141700
     12 H17          1.6650    -0.0020     2.1300 h4         1 NNT       0.219000
     13 H18          5.2980    -0.0450     2.3090 h1         1 NNT       0.116367
     14 H18A         3.9220    -0.8620     3.0640 h1         1 NNT       0.116367
     15 H18B         3.9910     0.9060     3.0270 h1         1 NNT       0.116367
     16 H19          5.3090    -0.0000     0.1300 h4         1 NNT       0.240000
     17 H20          4.1790    -0.0090    -2.0620 ha         1 NNT       0.234000
     18 HN24         0.0280     2.0300     0.1450 hn         1 NNT       0.471800
     19 HN2A        -1.4600     1.4120    -0.1260 hn         1 NNT       0.471800
     20 C18          4.2300    -0.0000     2.4830 c3         1 NNT      -0.032400
     21 H243        -0.3710     1.4840    -1.3420 hn         1 NNT       0.471800
@<TRIPOS>BOND
     1     1     2 1
     2     1     7 1
     3     2     3 ar
     4     2     6 ar
     5     3     8 2
     6    20     8 1
     7     4     5 ar
     8     4     8 1
     9     5     6 ar
    10     6     9 1
    11     1    10 1
    12     1    11 1
    13     3    12 1
    14    20    13 1
    15    20    14 1
    16    20    15 1
    17     4    16 1
    18     5    17 1
    19     7    18 1
    20     7    19 1
    21    21     7 1
@<TRIPOS>SUBSTRUCTURE
     1 NNT         1 TEMP              0 ****  ****    0 ROOT
