@<TRIPOS>MOLECULE
molecule
   17    17     1     0     0
SMALL
bcc


@<TRIPOS>ATOM
      1 N16          0.0000     0.0000     0.0000 nz         1 NNU      -0.811600
      2 C17          1.4690     0.0000     0.0000 c3         1 NNU       0.164100
      3 C18          1.9710     0.0000     1.4210 ca         1 NNU      -0.327600
      4 C22          2.4000     1.1730     2.0110 ca         1 NNU       0.476200
      5 N23          2.8410     1.1810     3.2540 nb         1 NNU      -0.659000
      6 C24          2.8920     0.0820     3.9800 ca         1 NNU       0.489200
      7 C25          2.4800    -1.1300     3.4570 ca         1 NNU      -0.230300
      8 C26          2.0050    -1.1780     2.1550 ca         1 NNU       0.072400
      9 Cl27         1.4700    -2.6750     1.4580 cl         1 NNU      -0.071400
     10 HN16        -0.3340     0.6810     0.6530 hn         1 NNU       0.457800
     11 HN1A        -0.3340    -0.9060     0.2630 hn         1 NNU       0.457800
     12 H17          1.8300    -0.8850    -0.5110 hx         1 NNU       0.119200
     13 H17A         1.8300     0.8840    -0.5110 hx         1 NNU       0.119200
     14 H22          2.3730     2.0970     1.4470 h4         1 NNU       0.039100
     15 H24          3.2630     0.1280     4.9970 h4         1 NNU       0.063100
     16 H25          2.5230    -2.0300     4.0590 ha         1 NNU       0.183000
     17 H163        -0.3340     0.2400    -0.9130 hn         1 NNU       0.457800
@<TRIPOS>BOND
     1     1     2 1
     2     2     3 1
     3     3     4 ar
     4     3     8 ar
     5     4     5 ar
     6     5     6 ar
     7     6     7 ar
     8     7     8 ar
     9     8     9 1
    10     1    10 1
    11     1    11 1
    12     2    12 1
    13     2    13 1
    14     4    14 1
    15     6    15 1
    16     7    16 1
    17    17     1 1
@<TRIPOS>SUBSTRUCTURE
     1 NNU         1 TEMP              0 ****  ****    0 ROOT
