@<TRIPOS>MOLECULE
NNU
   17    17     1     0     0
SMALL
bcc


@<TRIPOS>ATOM
      1 N16          0.0000     0.0000     0.0000 nz         1 NNU       0.071400
      2 C17          1.4690     0.0000     0.0000 c3         1 NNU       0.042100
      3 C18          1.9710     0.0000     1.4210 ca         1 NNU      -0.337600
      4 C22          2.4000     1.1730     2.0110 ca         1 NNU       0.466200
      5 N23          2.8410     1.1810     3.2540 nb         1 NNU      -0.546000
      6 C24          2.8920     0.0820     3.9800 ca         1 NNU       0.479200
      7 C25          2.4800    -1.1300     3.4570 ca         1 NNU      -0.192300
      8 C26          2.0050    -1.1780     2.1550 ca         1 NNU      -0.007600
      9 Cl27         1.4700    -2.6750     1.4580 cl         1 NNU       0.025600
     10 HN16        -0.3340     0.6810     0.6530 hn         1 NNU       0.225800
     11 HN1A        -0.3340    -0.9060     0.2630 hn         1 NNU       0.225800
     12 H17          1.8300    -0.8850    -0.5110 hx         1 NNU       0.087700
     13 H17A         1.8300     0.8840    -0.5110 hx         1 NNU       0.087700
     14 H22          2.3730     2.0970     1.4470 h4         1 NNU      -0.009900
     15 H24          3.2630     0.1280     4.9970 h4         1 NNU       0.007100
     16 H25          2.5230    -2.0300     4.0590 ha         1 NNU       0.148000
     17 H163        -0.3340     0.2400    -0.9130 hn         1 NNU       0.225800
@<TRIPOS>BOND
     1     1     2 1   
     2     1    10 1   
     3     1    11 1   
     4     1    17 1   
     5     2     3 1   
     6     2    12 1   
     7     2    13 1   
     8     3     4 ar  
     9     3     8 ar  
    10     4     5 ar  
    11     4    14 1   
    12     5     6 ar  
    13     6     7 ar  
    14     6    15 1   
    15     7     8 ar  
    16     7    16 1   
    17     8     9 1   
@<TRIPOS>SUBSTRUCTURE
     1 NNU         1 TEMP              0 ****  ****    0 ROOT
