@<TRIPOS>MOLECULE
NNV
   32    34     1     0     0
SMALL
bcc


@<TRIPOS>ATOM
      1 C01          0.0000     0.0000     0.0000 c2         1 NNV      -0.131200
      2 C02          1.5050     0.0000     0.0000 c3         1 NNV       0.035800
      3 C03          2.0280     0.0000     1.4350 c3         1 NNV      -0.068500
      4 C04          1.3660    -1.1100     2.2210 ce         1 NNV      -0.051600
      5 N05          2.1070    -1.7860     3.1130 ne         1 NNV      -0.385300
      6 C06          1.6210    -2.7300     3.8610 cf         1 NNV       0.260600
      7 C07          2.4480    -3.5440     4.7480 cf         1 NNV      -0.142600
      8 C08          1.9720    -4.6960     5.2170 c2         1 NNV      -0.212200
      9 C09          0.6010    -5.2130     4.8930 c3         1 NNV       0.058800
     10 C10          0.1340    -3.0240     3.8040 c3         1 NNV       0.118200
     11 C11          0.0250    -4.5400     3.6470 c3         1 NNV      -0.184700
     12 C12         -1.4230    -4.9280     3.4900 c          1 NNV       0.986600
     13 O13         -2.2800    -4.0750     3.4940 o          1 NNV      -0.901800
     14 O14         -1.7610    -6.2190     3.3460 o          1 NNV      -0.901800
     15 C15          0.0590    -1.3990     1.9800 cf         1 NNV       0.038000
     16 C16         -0.6720    -0.6590     0.9420 cf         1 NNV      -0.103000
     17 N17         -0.6140    -2.3780     2.7160 nu         1 NNV      -0.375000
     18 C18          1.7160     1.3250     2.0820 c          1 NNV       0.985600
     19 O19          2.2060     2.4590     1.5580 o          1 NNV      -0.908300
     20 O20          1.0240     1.3660     3.0730 o          1 NNV      -0.908300
     21 H011        -0.5390     0.5340    -0.7730 ha         1 NNV       0.072000
     22 H022         1.8630     0.8860    -0.5110 hc         1 NNV       0.006200
     23 H021         1.8630    -0.8860    -0.5110 hc         1 NNV       0.006200
     24 H031         3.0990    -0.1580     1.4250 hc         1 NNV       0.024700
     25 H071         3.3900    -3.1570     5.1160 ha         1 NNV       0.086000
     26 H081         2.6060    -5.2890     5.8650 ha         1 NNV       0.066000
     27 H092        -0.0550    -5.0190     5.7330 hc         1 NNV       0.015700
     28 H091         0.6590    -6.2810     4.7220 hc         1 NNV       0.015700
     29 H101        -0.3130    -2.7380     4.7490 h1         1 NNV       0.027700
     30 H111         0.5860    -4.8540     2.7750 hc         1 NNV       0.030700
     31 H161        -1.7530    -0.6000     0.9780 ha         1 NNV       0.092000
     32 H171        -1.4250    -2.8220     2.3340 hn         1 NNV       0.346800
@<TRIPOS>BOND
     1     1     2 1   
     2     1    16 2   
     3     1    21 1   
     4     2     3 1   
     5     2    22 1   
     6     2    23 1   
     7     3     4 1   
     8     3    18 1   
     9     3    24 1   
    10     4     5 1   
    11     4    15 2   
    12     5     6 2   
    13     6     7 1   
    14     6    10 1   
    15     7     8 2   
    16     7    25 1   
    17     8     9 1   
    18     8    26 1   
    19     9    11 1   
    20     9    27 1   
    21     9    28 1   
    22    10    11 1   
    23    10    17 1   
    24    10    29 1   
    25    11    12 1   
    26    11    30 1   
    27    12    13 1   
    28    12    14 1   
    29    15    16 1   
    30    15    17 1   
    31    16    31 1   
    32    17    32 1   
    33    18    19 1   
    34    18    20 1   
@<TRIPOS>SUBSTRUCTURE
     1 NNV         1 TEMP              0 ****  ****    0 ROOT
