@<TRIPOS>MOLECULE
molecule
   32    34     1     0     0
SMALL
bcc


@<TRIPOS>ATOM
      1 C01          0.0000     0.0000     0.0000 c2         1 NNV      -0.149200
      2 C02          1.5050     0.0000     0.0000 c3         1 NNV      -0.027200
      3 C03          2.0280     0.0000     1.4350 c3         1 NNV      -0.092500
      4 C04          1.3660    -1.1100     2.2210 ce         1 NNV       0.010400
      5 N05          2.1070    -1.7860     3.1130 nf         1 NNV      -0.532300
      6 C06          1.6210    -2.7300     3.8610 ce         1 NNV       0.346600
      7 C07          2.4480    -3.5440     4.7480 ce         1 NNV      -0.171600
      8 C08          1.9720    -4.6960     5.2170 c2         1 NNV      -0.212200
      9 C09          0.6010    -5.2130     4.8930 c3         1 NNV      -0.013200
     10 C10          0.1340    -3.0240     3.8040 c3         1 NNV       0.190200
     11 C11          0.0250    -4.5400     3.6470 c3         1 NNV      -0.196700
     12 C12         -1.4230    -4.9280     3.4900 c          1 NNV       0.894600
     13 O13         -2.2800    -4.0750     3.4940 o          1 NNV      -0.856800
     14 O14         -1.7610    -6.2190     3.3460 o          1 NNV      -0.856800
     15 C15          0.0590    -1.3990     1.9800 cf         1 NNV       0.163000
     16 C16         -0.6720    -0.6590     0.9420 cf         1 NNV      -0.130000
     17 N17         -0.6140    -2.3780     2.7160 nu         1 NNV      -0.749000
     18 C18          1.7160     1.3250     2.0820 c          1 NNV       0.898600
     19 O19          2.2060     2.4590     1.5580 o          1 NNV      -0.857800
     20 O20          1.0240     1.3660     3.0730 o          1 NNV      -0.857800
     21 H011        -0.5390     0.5340    -0.7730 ha         1 NNV       0.096000
     22 H022         1.8630     0.8860    -0.5110 hc         1 NNV       0.034200
     23 H021         1.8630    -0.8860    -0.5110 hc         1 NNV       0.034200
     24 H031         3.0990    -0.1580     1.4250 hc         1 NNV       0.052700
     25 H071         3.3900    -3.1570     5.1160 ha         1 NNV       0.113000
     26 H081         2.6060    -5.2890     5.8650 ha         1 NNV       0.085000
     27 H092        -0.0550    -5.0190     5.7330 hc         1 NNV       0.044700
     28 H091         0.6590    -6.2810     4.7220 hc         1 NNV       0.044700
     29 H101        -0.3130    -2.7380     4.7490 h1         1 NNV       0.051700
     30 H111         0.5860    -4.8540     2.7750 hc         1 NNV       0.051700
     31 H161        -1.7530    -0.6000     0.9780 ha         1 NNV       0.115000
     32 H171        -1.4250    -2.8220     2.3340 hn         1 NNV       0.475800
@<TRIPOS>BOND
     1    13    12 1
     2    14    12 1
     3    12    11 1
     4    11     9 1
     5    11    10 1
     6     9     8 1
     7     8     7 2
     8    10    17 1
     9    10     6 1
    10    17    15 1
    11     7     6 1
    12    20    18 1
    13     6     5 2
    14    15    16 1
    15    15     4 2
    16    16     1 2
    17     5     4 1
    18     4     3 1
    19    18     3 1
    20    18    19 1
    21     1     2 1
    22     3     2 1
    23     1    21 1
    24     2    22 1
    25     2    23 1
    26     3    24 1
    27     7    25 1
    28     8    26 1
    29     9    27 1
    30     9    28 1
    31    10    29 1
    32    11    30 1
    33    16    31 1
    34    17    32 1
@<TRIPOS>SUBSTRUCTURE
     1 NNV         1 TEMP              0 ****  ****    0 ROOT
