@<TRIPOS>MOLECULE
molecule
   17    17     1     0     0
SMALL
bcc


@<TRIPOS>ATOM
      1 C15          0.0000     0.0000     0.0000 c3         1 NNW       0.158100
      2 C16          1.5070     0.0000     0.0000 ca         1 NNW      -0.157300
      3 C17          2.2170     0.0000     1.1910 ca         1 NNW      -0.233300
      4 C18          3.5990    -0.0010     1.1500 ca         1 NNW       0.451200
      5 C19          3.5980    -0.0080    -1.1530 ca         1 NNW       0.451200
      6 C20          2.2170    -0.0080    -1.1920 ca         1 NNW      -0.233300
      7 N23         -0.4890     1.3860    -0.0010 nz         1 NNW      -0.809600
      8 N24          4.2400    -0.0030    -0.0020 nb         1 NNW      -0.636000
      9 H15         -0.3610    -0.5100     0.8850 hx         1 NNW       0.116700
     10 H15A        -0.3610    -0.5110    -0.8840 hx         1 NNW       0.116700
     11 H17          1.6960     0.0020     2.1400 ha         1 NNW       0.147000
     12 H18          4.1610     0.0010     2.0760 h4         1 NNW       0.055100
     13 H19          4.1590    -0.0120    -2.0790 h4         1 NNW       0.055100
     14 H20          1.6940    -0.0120    -2.1410 ha         1 NNW       0.147000
     15 HN23        -0.1440     1.8600    -0.8130 hn         1 NNW       0.457800
     16 HN2A        -1.4890     1.3860    -0.0140 hn         1 NNW       0.457800
     17 H233        -0.1650     1.8540     0.8220 hn         1 NNW       0.457800
@<TRIPOS>BOND
     1     1     2 1
     2     1     7 1
     3     2     3 ar
     4     2     6 ar
     5     3     4 ar
     6     4     8 ar
     7     5     6 ar
     8     5     8 ar
     9     1     9 1
    10     1    10 1
    11     3    11 1
    12     4    12 1
    13     5    13 1
    14     6    14 1
    15     7    15 1
    16     7    16 1
    17    17     7 1
@<TRIPOS>SUBSTRUCTURE
     1 NNW         1 TEMP              0 ****  ****    0 ROOT
