@<TRIPOS>MOLECULE
NNX
   21    21     1     0     0
SMALL
bcc


@<TRIPOS>ATOM
      1 Cl2          0.0000     0.0000     0.0000 cl         1 NNX       0.253600
      2 N18          5.5660    -1.3730    -1.2480 nz         1 NNX       0.077400
      3 C19          5.1180     0.0050    -1.0080 c3         1 NNX       0.025100
      4 C20          3.9980     0.0000     0.0000 ca         1 NNX      -0.340600
      5 N21          4.2800     0.0000     1.2880 na         1 NNX       0.677900
      6 C22          2.6870     0.0020    -0.4360 ca         1 NNX      -0.021000
      7 C23          1.6630    -0.0020     0.5000 ca         1 NNX      -0.040600
      8 C24          1.9990    -0.0080     1.8460 ca         1 NNX      -0.012000
      9 C25          3.3320    -0.0040     2.2060 ca         1 NNX      -0.226300
     10 HN18         5.3780    -1.6250    -2.1980 hn         1 NNX       0.240133
     11 HN1A         5.0760    -1.9950    -0.6350 hn         1 NNX       0.240133
     12 H19          5.9450     0.5930    -0.6260 hx         1 NNX       0.112200
     13 H19A         4.7660     0.4380    -1.9370 hx         1 NNX       0.112200
     14 H22          2.4640     0.1760    -1.4820 ha         1 NNX       0.166000
     15 H24          1.2370    -0.1900     2.5940 ha         1 NNX       0.179000
     16 H25          3.3810     0.0290     3.2880 h4         1 NNX       0.213000
     17 H27          5.7340     0.0660     2.7910 h1         1 NNX       0.068033
     18 H27A         6.1620    -0.9090     1.3780 h1         1 NNX       0.068033
     19 H27B         6.1880     0.8570     1.2750 h1         1 NNX       0.068033
     20 H183         6.5550    -1.4320    -1.1060 hn         1 NNX       0.240133
     21 C27          5.6820     0.0040     1.7110 c3         1 NNX      -0.099400
@<TRIPOS>BOND
     1     1     7 1   
     2     2     3 1   
     3     2    10 1   
     4     2    11 1   
     5     2    20 1   
     6     3     4 1   
     7     3    12 1   
     8     3    13 1   
     9     4     5 1   
    10     4     6 ar  
    11     5     9 2   
    12     5    21 1   
    13     6     7 ar  
    14     6    14 1   
    15     7     8 ar  
    16     8     9 ar  
    17     8    15 1   
    18     9    16 1   
    19    17    21 1   
    20    18    21 1   
    21    19    21 1   
@<TRIPOS>SUBSTRUCTURE
     1 NNX         1 TEMP              0 ****  ****    0 ROOT
