@<TRIPOS>MOLECULE
molecule
   17    17     1     0     0
SMALL
bcc


@<TRIPOS>ATOM
      1 C12          0.0000     0.0000     0.0000 c3         1 NNY       0.070500
      2 C13          1.5070     0.0000     0.0000 ca         1 NNY       0.328600
      3 C17          3.4760    -0.0060    -1.1980 ca         1 NNY       0.450200
      4 C18          4.2270    -0.0010    -0.0380 ca         1 NNY      -0.195300
      5 C19          3.5780    -0.0010     1.1880 ca         1 NNY       0.064400
      6 C20          2.1900     0.0000     1.2000 ca         1 NNY      -0.219300
      7 N23         -0.4890     1.3800    -0.1210 nz         1 NNY      -0.809600
      8 N24          2.1590    -0.0050    -1.1470 nb         1 NNY      -0.682000
      9 Cl27         4.4800     0.0050     2.6720 cl         1 NNY      -0.029400
     10 H12         -0.3610    -0.4320     0.9260 hx         1 NNY       0.122200
     11 H12A        -0.3610    -0.5860    -0.8370 hx         1 NNY       0.122200
     12 H17          3.9750    -0.0090    -2.1590 h4         1 NNY       0.060100
     13 H18          5.3100    -0.0020    -0.0850 ha         1 NNY       0.182000
     14 H20          1.6490     0.0000     2.1390 ha         1 NNY       0.157000
     15 HN23        -0.3460     1.7040    -1.0570 hn         1 NNY       0.459467
     16 HN2A        -1.4660     1.4070     0.0960 hn         1 NNY       0.459467
     17 H233         0.0110     1.9680     0.5160 hn         1 NNY       0.459467
@<TRIPOS>BOND
     1     1     2 1
     2     1     7 1
     3     2     6 ar
     4     2     8 ar
     5     3     4 ar
     6     3     8 ar
     7     4     5 ar
     8     5     6 ar
     9     5     9 1
    10     1    10 1
    11     1    11 1
    12     3    12 1
    13     4    13 1
    14     6    14 1
    15     7    15 1
    16     7    16 1
    17    17     7 1
@<TRIPOS>SUBSTRUCTURE
     1 NNY         1 TEMP              0 ****  ****    0 ROOT
