@<TRIPOS>MOLECULE
NNZ
   21    21     1     0     0
SMALL
bcc


@<TRIPOS>ATOM
      1 N16          0.0000     0.0000     0.0000 nz         1 NNZ       0.079400
      2 C17          1.4690     0.0000     0.0000 c3         1 NNZ       0.027100
      3 C18          1.9710     0.0000     1.4210 ca         1 NNZ      -0.361600
      4 C22          2.2890     1.1980     2.0330 ca         1 NNZ       0.002000
      5 C23          2.7510     1.1860     3.3400 ca         1 NNZ       0.012000
      6 C24          2.8760    -0.0340     3.9860 ca         1 NNZ       0.018000
      7 C25          2.5400    -1.1920     3.3080 ca         1 NNZ      -0.217300
      8 N26          2.0990    -1.1430     2.0670 na         1 NNZ       0.678900
      9 C27          1.7460    -2.3900     1.3860 c3         1 NNZ      -0.100400
     10 HN16        -0.3340     0.8840    -0.3300 hn         1 NNZ       0.239467
     11 HN1A        -0.3340    -0.7280    -0.6000 hn         1 NNZ       0.239467
     12 H17          1.8300     0.8850    -0.5110 hx         1 NNZ       0.112200
     13 H17A         1.8300    -0.8840    -0.5110 hx         1 NNZ       0.112200
     14 H22          2.1790     2.1330     1.4980 ha         1 NNZ       0.160000
     15 H23          3.0070     2.1090     3.8460 ha         1 NNZ       0.174000
     16 H24          3.2360    -0.0810     5.0060 ha         1 NNZ       0.177000
     17 H25          2.6330    -2.1490     3.8060 h4         1 NNZ       0.196000
     18 H27          0.6940    -2.3770     1.1300 h1         1 NNZ       0.070033
     19 H27A         1.9470    -3.2290     2.0410 h1         1 NNZ       0.070033
     20 H27B         2.3360    -2.4880     0.4830 h1         1 NNZ       0.070033
     21 H163        -0.3340    -0.1890     0.9250 hn         1 NNZ       0.239467
@<TRIPOS>BOND
     1     1     2 1   
     2     1    10 1   
     3     1    11 1   
     4     1    21 1   
     5     2     3 1   
     6     2    12 1   
     7     2    13 1   
     8     3     4 ar  
     9     3     8 2   
    10     4     5 ar  
    11     4    14 1   
    12     5     6 ar  
    13     5    15 1   
    14     6     7 ar  
    15     6    16 1   
    16     7     8 1   
    17     7    17 1   
    18     8     9 1   
    19     9    18 1   
    20     9    19 1   
    21     9    20 1   
@<TRIPOS>SUBSTRUCTURE
     1 NNZ         1 TEMP              0 ****  ****    0 ROOT
