@<TRIPOS>MOLECULE
NO1
   25    25     1     0     0
SMALL
bcc


@<TRIPOS>ATOM
      1 C           0.0670   -0.3510    0.1440 c2        1 NO1      0.382000
      2 O           1.2920   -0.6350    0.1650 o         1 NO1     -0.556500
      3 OXT        -0.6630   -0.2040    1.1660 o         1 NO1     -0.556500
      4 CG         -0.0970   -0.2410   -2.5270 c2        1 NO1     -0.144000
      5 CD1        -0.6080   -0.1720   -1.2100 c2        1 NO1     -0.067000
      6 NE1        -1.9650    0.0960   -1.2920 na        1 NO1     -0.140000
      7 CD2        -1.1960   -0.0210   -3.4290 c2        1 NO1     -0.088000
      8 CE2        -2.3540    0.1900   -2.6310 c2        1 NO1     -0.080000
      9 CE3        -1.1400   -0.0090   -4.8710 c2        1 NO1     -0.127000
     10 CZ2        -3.7050    0.4830   -3.0280 c2        1 NO1     -0.354000
     11 CZ3        -2.2520   -0.6520   -5.6140 c3        1 NO1     -0.187000
     12 CH2        -4.2560    0.3810   -4.2220 c1        1 NO1      0.097000
     13 CF         -0.0980    0.5690   -5.5090 c2        1 NO1     -0.040000
     14 OH          0.0660    0.6440   -6.8710 oh        1 NO1     -0.279000
     15 HB1C        1.3710   -1.1500   -3.7840 hc        1 NO1      0.077000
     16 HB2C        1.8310    0.4650   -3.1030 hc        1 NO1      0.077000
     17 HB3C        1.8250   -0.9860   -2.0160 hc        1 NO1      0.077000
     18 HE1        -2.5500    0.1880   -0.5010 hn        1 NO1      0.254000
     19 HZ2        -4.3810    0.8520   -2.2220 ha        1 NO1      0.174000
     20 HZ3        -2.9270    0.1210   -6.0680 hc        1 NO1      0.083667
     21 HF1C       -1.8610   -1.2960   -6.4420 hc        1 NO1      0.083667
     22 HF2C        0.7600    1.0420   -5.0030 h4        1 NO1      0.174000
     23 HH2        -2.8530   -1.3130   -4.9390 hc        1 NO1      0.083667
     24 HH         -0.7070    0.2550   -7.3030 ho        1 NO1      0.201000
     25 CB          1.3000   -0.4960   -2.8780 c3        1 NO1     -0.146000
@<TRIPOS>BOND
     1    1    2 1   
     2    1    3 1   
     3    1    5 1   
     4    4    5 1   
     5    4    7 1   
     6    4   25 1   
     7    5    6 1   
     8    6    8 1   
     9    6   18 1   
    10    7    8 1   
    11    7    9 1   
    12    8   10 1   
    13    9   11 1   
    14    9   13 1   
    15   10   12 1   
    16   10   19 1   
    17   11   20 1   
    18   11   21 1   
    19   11   23 1   
    20   13   14 1   
    21   13   22 1   
    22   14   24 1   
    23   15   25 1   
    24   16   25 1   
    25   17   25 1   
@<TRIPOS>SUBSTRUCTURE
     1 NO1         1 TEMP              0 ****  ****    0 ROOT
