@<TRIPOS>MOLECULE
molecule
   25    26     1     0     0
SMALL
bcc


@<TRIPOS>ATOM
      1 C            0.0000     0.0000     0.0000 c          1 NO1       0.899800
      2 O            1.2160     0.0000     0.0000 o          1 NO1      -0.827300
      3 OXT         -0.6740     0.0000     1.1680 o          1 NO1      -0.827300
      4 CG          -0.1690     0.0130    -2.5080 cc         1 NO1      -0.165400
      5 CD1         -0.7340     0.0060    -1.2720 cd         1 NO1      -0.050300
      6 NE1         -2.1100     0.0070    -1.4040 na         1 NO1      -0.150400
      7 CD2         -1.2170     0.0230    -3.4610 ca         1 NO1      -0.088800
      8 CE2         -2.4280     0.0140    -2.7400 ca         1 NO1      -0.061200
      9 CE3         -1.2430     0.0380    -4.8620 ca         1 NO1      -0.039300
     10 CZ2         -3.6350     0.0160    -3.4330 ca         1 NO1      -0.145000
     11 CZ3         -2.4390     0.0460    -5.5180 ca         1 NO1      -0.142000
     12 CH2         -3.6350     0.0230    -4.8100 ca         1 NO1      -0.166000
     13 CF           0.0460     0.0450    -5.6410 c3         1 NO1       0.189700
     14 OH          -0.2430     0.0590    -7.0410 oh         1 NO1      -0.619800
     15 HB1C         1.5570    -0.8630    -3.3950 hc         1 NO1       0.039367
     16 HB2C         1.5590     0.9060    -3.3740 hc         1 NO1       0.039367
     17 HB3C         1.8660     0.0030    -1.8840 hc         1 NO1       0.039367
     18 HE1         -2.7670     0.0040    -0.6490 hn         1 NO1       0.309700
     19 HZ2         -4.6060     0.0170    -2.9540 ha         1 NO1       0.108000
     20 HZ3         -2.7150     0.0810    -6.5650 ha         1 NO1       0.126000
     21 HF1C         0.6190    -0.8420    -5.4000 h1         1 NO1       0.032700
     22 HF2C         0.6200     0.9270    -5.3830 h1         1 NO1       0.032700
     23 HH2         -4.5930     0.0050    -5.3150 ha         1 NO1       0.108000
     24 HH           0.5630     0.0620    -7.5290 ho         1 NO1       0.387000
     25 CB           1.3070     0.0150    -2.8110 c3         1 NO1      -0.028900
@<TRIPOS>BOND
     1     1     2 1
     2     1     5 1
     3    25     4 1
     4     4     5 2
     5     4     7 1
     6     5     6 1
     7     6     8 1
     8     7     8 ar
     9     7     9 ar
    10     8    10 ar
    11     9    11 ar
    12     9    13 1
    13    10    12 ar
    14    11    12 ar
    15    13    14 1
    16     1     3 1
    17    25    15 1
    18    25    16 1
    19    25    17 1
    20     6    18 1
    21    10    19 1
    22    11    20 1
    23    13    21 1
    24    13    22 1
    25    12    23 1
    26    14    24 1
@<TRIPOS>SUBSTRUCTURE
     1 NO1         1 TEMP              0 ****  ****    0 ROOT
