@<TRIPOS>MOLECULE
NO2
    3     2     1     0     0
SMALL
bcc


@<TRIPOS>ATOM
      1 N            0.0000    -0.4240     0.0000 n2         1 NO2       0.212400
      2 O1          -1.0550     0.1850     0.0000 o          1 NO2      -0.606700
      3 O2           1.0550     0.1850     0.0000 o          1 NO2      -0.606700
@<TRIPOS>BOND
     1     1     2 2   
     2     1     3 2   
@<TRIPOS>SUBSTRUCTURE
     1 NO2         1 TEMP              0 ****  ****    0 ROOT
