@<TRIPOS>MOLECULE
NO3
    4     3     1     0     0
SMALL
bcc


@<TRIPOS>ATOM
      1 N           -0.0000     0.0000    -0.0010 no         1 NO3       1.299700
      2 O1          -1.2180     0.0170     0.0000 o          1 NO3      -0.954367
      3 O2           0.6230     1.0460     0.0000 o          1 NO3      -0.672667
      4 O3           0.5950    -1.0630     0.0000 o          1 NO3      -0.672667
@<TRIPOS>BOND
     1     1     2 2   
     2     1     3 1   
     3     1     4 1   
@<TRIPOS>SUBSTRUCTURE
     1 NO3         1 TEMP              0 ****  ****    0 ROOT
