@<TRIPOS>MOLECULE
molecule
   24    25     1     0     0
SMALL
bcc


@<TRIPOS>ATOM
      1 C            0.0000     0.0000     0.0000 c          1 NOA       0.891600
      2 CA           1.5060     0.0000     0.0000 c3         1 NOA       0.001400
      3 C1           3.3410    -0.0000     1.2830 ca         1 NOA       0.194100
      4 C2           3.9720    -0.0000     0.0710 ca         1 NOA      -0.258000
      5 C3           5.3600    -0.0000    -0.0130 ca         1 NOA      -0.108000
      6 C4           6.1310    -0.0000     1.1090 ca         1 NOA      -0.205000
      7 C4A          5.5210    -0.0000     2.3760 ca         1 NOA       0.007000
      8 C5           6.2860    -0.0000     3.5540 ca         1 NOA      -0.144000
      9 C6           5.6610     0.0000     4.7620 ca         1 NOA      -0.121000
     10 C7           4.2700     0.0000     4.8500 ca         1 NOA      -0.170000
     11 C8           3.4960    -0.0010     3.7290 ca         1 NOA      -0.068000
     12 C1A          4.1070     0.0050     2.4640 ca         1 NOA      -0.066000
     13 O           -0.6040     0.0000     1.0480 o          1 NOA      -0.830300
     14 OXT         -0.6730     0.0000    -1.1610 o          1 NOA      -0.830300
     15 O1           1.9850     0.0000     1.3470 os         1 NOA      -0.256900
     16 HA1          1.8670     0.8840    -0.5110 h1         1 NOA       0.035700
     17 HA2          1.8670    -0.8840    -0.5110 h1         1 NOA       0.035700
     18 H2           3.8350    -0.0000    -1.0040 ha         1 NOA       0.156000
     19 H3           5.9160     0.0000    -0.9430 ha         1 NOA       0.111000
     20 H4           7.1940    -0.0000     0.9030 ha         1 NOA       0.114000
     21 H5           7.3680    -0.0000     3.5010 ha         1 NOA       0.119000
     22 H6           6.2530     0.0010     5.6690 ha         1 NOA       0.111000
     23 H7           3.7970     0.0000     5.8240 ha         1 NOA       0.119000
     24 H8           2.4160    -0.0010     3.8120 ha         1 NOA       0.161000
@<TRIPOS>BOND
     1     1     2 1
     2     1    13 1
     3     1    14 1
     4     2    15 1
     5     2    16 1
     6     2    17 1
     7     3     4 ar
     8     3    12 ar
     9     3    15 1
    10     4     5 ar
    11     4    18 1
    12     5     6 ar
    13     5    19 1
    14     6     7 ar
    15     6    20 1
    16     7     8 ar
    17     7    12 ar
    18     8     9 ar
    19     8    21 1
    20     9    10 ar
    21     9    22 1
    22    10    11 ar
    23    10    23 1
    24    11    12 ar
    25    11    24 1
@<TRIPOS>SUBSTRUCTURE
     1 NOA         1 TEMP              0 ****  ****    0 ROOT
