@<TRIPOS>MOLECULE
NOA
   24    25     1     0     0
SMALL
bcc


@<TRIPOS>ATOM
      1 C          -0.1150   -0.0100    0.2670 c         1 NOA      0.925600
      2 CA          1.4050   -0.0050   -0.0530 c3        1 NOA     -0.014600
      3 C1          3.4920   -0.0030    1.0890 ca        1 NOA      0.182100
      4 C2          4.2160    0.0030   -0.0950 ca        1 NOA     -0.263000
      5 C3          5.6240    0.0070   -0.0560 ca        1 NOA     -0.073000
      6 C4          6.3060    0.0050    1.1370 ca        1 NOA     -0.203000
      7 C4A         5.5940   -0.0010    2.3660 ca        1 NOA     -0.002000
      8 C5          6.2680   -0.0040    3.6180 ca        1 NOA     -0.151000
      9 C6          5.5580   -0.0100    4.7950 ca        1 NOA     -0.121000
     10 C7          4.1450   -0.0140    4.7800 ca        1 NOA     -0.174000
     11 C8          3.4650   -0.0120    3.5840 ca        1 NOA     -0.066000
     12 C1A         4.1770   -0.0050    2.3560 ca        1 NOA     -0.073000
     13 O          -0.5080   -0.0160    1.4590 o         1 NOA     -0.820800
     14 OXT        -0.8560   -0.0090   -0.7560 o         1 NOA     -0.820800
     15 O1          2.1310   -0.0070    1.1810 os        1 NOA     -0.277900
     16 HA1         1.6640    0.9140   -0.6370 h1        1 NOA      0.026700
     17 HA2         1.6690   -0.9190   -0.6430 h1        1 NOA      0.026700
     18 H2          3.7040    0.0050   -1.0660 ha        1 NOA      0.143000
     19 H3          6.1750    0.0120   -1.0090 ha        1 NOA      0.113000
     20 H4          7.4040    0.0080    1.1620 ha        1 NOA      0.115000
     21 H5          7.3670   -0.0000    3.6220 ha        1 NOA      0.117000
     22 H6          6.0820   -0.0110    5.7620 ha        1 NOA      0.112000
     23 H7          3.5970   -0.0180    5.7330 ha        1 NOA      0.123000
     24 H8          2.3610   -0.0150    3.5440 ha        1 NOA      0.177000
@<TRIPOS>BOND
     1    1    2 1   
     2    1   13 1   
     3    1   14 1   
     4    2   15 1   
     5    2   16 1   
     6    2   17 1   
     7    3    4 ar  
     8    3   12 ar  
     9    3   15 1   
    10    4    5 ar  
    11    4   18 1   
    12    5    6 ar  
    13    5   19 1   
    14    6    7 ar  
    15    6   20 1   
    16    7    8 ar  
    17    7   12 ar  
    18    8    9 ar  
    19    8   21 1   
    20    9   10 ar  
    21    9   22 1   
    22   10   11 ar  
    23   10   23 1   
    24   11   12 ar  
    25   11   24 1   
@<TRIPOS>SUBSTRUCTURE
     1 NOA         1 TEMP              0 ****  ****    0 ROOT
