@<TRIPOS>MOLECULE
molecule
   34    36     1     0     0
SMALL
bcc


@<TRIPOS>ATOM
      1 C6'          0.0000     0.0000     0.0000 c3         1 NOC       0.146400
      2 O6'         -0.4760     1.2490     0.5080 oh         1 NOC      -0.604800
      3 C5'          2.0570    -1.2870    -0.6600 c3         1 NOC      -0.095400
      4 C4'          1.5300     0.0000     0.0000 c3         1 NOC      -0.080700
      5 C3'          2.0590     0.0000     1.4500 c3         1 NOC       0.135100
      6 O3'          2.4110     1.3240     1.8530 oh         1 NOC      -0.593800
      7 C2'          3.3140    -0.9090     1.3980 c3         1 NOC       0.105100
      8 O2'          3.6020    -1.4480     2.6900 oh         1 NOC      -0.593800
      9 C1'          2.8870    -2.0230     0.4120 c3         1 NOC       0.054000
     10 N9           4.0640    -2.6500    -0.1940 na         1 NOC      -0.242000
     11 C8           5.0460    -2.0140    -0.8940 cc         1 NOC       0.405700
     12 N7           5.9400    -2.8760    -1.2880 nd         1 NOC      -0.582100
     13 C5           5.5910    -4.1140    -0.8630 ca         1 NOC      -0.217200
     14 C6           6.1500    -5.3970    -0.9920 ca         1 NOC       0.790200
     15 N6           7.3370    -5.5860    -1.6780 nv         1 NOC      -0.983500
     16 N1           5.5150    -6.4230    -0.4360 nb         1 NOC      -0.838000
     17 C2           4.3810    -6.2520     0.2200 ca         1 NOC       0.743900
     18 N3           3.8190    -5.0700     0.3610 nb         1 NOC      -0.795000
     19 C4           4.3810    -3.9850    -0.1610 ca         1 NOC       0.479800
     20 H6'1        -0.3610    -0.8060     0.6270 h1         1 NOC       0.025700
     21 H6'2        -0.3610    -0.1400    -1.0120 h1         1 NOC       0.025700
     22 HO6'        -1.3820     1.3590     0.2730 ho         1 NOC       0.404000
     23 H5'1         2.6840    -1.0370    -1.5070 hc         1 NOC       0.062200
     24 H5'2         1.2270    -1.9070    -0.9750 hc         1 NOC       0.062200
     25 HC4'         1.9060     0.8670    -0.5300 hc         1 NOC       0.088700
     26 HC3'         1.3180    -0.4200     2.1190 h1         1 NOC       0.062700
     27 HO3'         2.1510     1.4600     2.7490 ho         1 NOC       0.411000
     28 HC2'         4.1630    -0.3610     1.0080 h1         1 NOC       0.059700
     29 HO2'         4.3220    -0.9760     3.0740 ho         1 NOC       0.412000
     30 HC1'         2.2780    -2.7610     0.9190 h1         1 NOC       0.113700
     31 HC8          5.0790    -0.9500    -1.0940 h5         1 NOC       0.078800
     32 HN61         7.8070    -4.8040    -2.0900 hn         1 NOC       0.450300
     33 HN62         7.7250    -6.5040    -1.7620 hn         1 NOC       0.450300
     34 HC2          3.8960    -7.1160     0.6580 h5         1 NOC       0.061100
@<TRIPOS>BOND
     1     1     2 1
     2     1     4 1
     3     1    20 1
     4     1    21 1
     5     2    22 1
     6     3     4 1
     7     3     9 1
     8     3    23 1
     9     3    24 1
    10     4     5 1
    11     4    25 1
    12     5     6 1
    13     5     7 1
    14     5    26 1
    15     6    27 1
    16     7     8 1
    17     7     9 1
    18     7    28 1
    19     8    29 1
    20     9    10 1
    21     9    30 1
    22    10    11 1
    23    10    19 1
    24    11    12 2
    25    11    31 1
    26    12    13 1
    27    13    14 ar
    28    13    19 ar
    29    14    15 1
    30    14    16 ar
    31    15    32 1
    32    15    33 1
    33    16    17 ar
    34    17    18 ar
    35    17    34 1
    36    18    19 ar
@<TRIPOS>SUBSTRUCTURE
     1 NOC         1 TEMP              0 ****  ****    0 ROOT
