@<TRIPOS>MOLECULE
NOE
    9     8     1     0     0
SMALL
bcc


@<TRIPOS>ATOM
      1 C1           0.0000     0.0000     0.0000 c3         1 NOE       0.027800
      2 C2           1.5290     0.0000     0.0000 c3         1 NOE       0.023900
      3 N           -0.4890     0.0000     1.3790 n2         1 NOE       0.079100
      4 O1          -1.1900     0.9120     1.7780 o          1 NOE      -0.225300
      5 HC11        -0.3610    -0.8840    -0.5110 h1         1 NOE       0.032700
      6 HC12        -0.3610     0.8840    -0.5110 h1         1 NOE       0.032700
      7 HC21         1.8900    -0.0550    -1.0200 hc         1 NOE       0.010033
      8 HC22         1.8900     0.9110     0.4620 hc         1 NOE       0.010033
      9 HC23         1.8900    -0.8550     0.5580 hc         1 NOE       0.010033
@<TRIPOS>BOND
     1     1     2 1   
     2     1     3 1   
     3     1     5 1   
     4     1     6 1   
     5     2     7 1   
     6     2     8 1   
     7     2     9 1   
     8     3     4 2   
@<TRIPOS>SUBSTRUCTURE
     1 NOE         1 TEMP              0 ****  ****    0 ROOT
