@<TRIPOS>MOLECULE
NOG
   51    54     1     0     0
SMALL
bcc


@<TRIPOS>ATOM
      1 C1          0.0530    0.0600    0.0780 c3        1 NOG     -0.071400
      2 C2          1.5640    0.0670    0.0550 c3        1 NOG     -0.182400
      3 C3          2.1320   -0.0020    1.4440 c         1 NOG      0.569300
      4 C4          1.4130   -0.8820    2.3730 ce        1 NOG     -0.267200
      5 C5          0.2100   -1.4150    2.0980 c2        1 NOG     -0.031400
      6 C6         -0.4090   -2.3910    3.0400 c3        1 NOG     -0.054200
      7 C7         -1.8960   -2.1770    3.2210 c3        1 NOG     -0.073400
      8 C8         -2.5900   -2.1140    1.8710 c3        1 NOG     -0.049700
      9 C9         -2.0240   -0.9350    1.0650 c3        1 NOG     -0.052700
     10 C10        -0.5240   -1.1410    0.8190 c3        1 NOG     -0.034500
     11 C11        -2.7750   -0.7370   -0.2460 c3        1 NOG     -0.074400
     12 C12        -4.2800   -0.6220   -0.0640 c3        1 NOG     -0.066400
     13 C13        -4.8210   -1.8400    0.6650 c3        1 NOG     -0.022000
     14 C14        -4.0810   -1.9130    2.0270 c3        1 NOG     -0.069700
     15 C15        -4.8820   -2.9230    2.8360 c3        1 NOG     -0.069400
     16 C16        -6.3330   -2.6820    2.4200 c3        1 NOG     -0.105400
     17 C17        -6.3030   -1.7480    1.1690 c3        1 NOG      0.235900
     18 C18        -4.6530   -3.1160   -0.1630 c3        1 NOG     -0.057400
     19 C19        -5.0350   -2.9840   -1.6160 c3        1 NOG     -0.091100
     20 C20        -6.6770   -0.3960    1.5420 c1        1 NOG     -0.167100
     21 C21        -6.9960    0.7140    1.8550 c1        1 NOG     -0.135500
     22 O3          3.1550    0.6140    1.7690 o         1 NOG     -0.536100
     23 O17        -7.1750   -2.2470    0.1620 oh        1 NOG     -0.579800
     24 HC11       -0.3160    1.0050    0.5580 hc        1 NOG      0.051200
     25 HC12       -0.3210    0.0510   -0.9810 hc        1 NOG      0.051200
     26 HC21        1.9340    0.9900   -0.4640 hc        1 NOG      0.070700
     27 HC22        1.9480   -0.8200   -0.5170 hc        1 NOG      0.070700
     28 HC4         1.9330   -1.0920    3.3220 ha        1 NOG      0.148000
     29 HC61        0.0960   -2.3410    4.0420 hc        1 NOG      0.055700
     30 HC62       -0.2290   -3.4240    2.6290 hc        1 NOG      0.055700
     31 HC71       -2.0800   -1.2280    3.7890 hc        1 NOG      0.047700
     32 HC72       -2.3250   -3.0200    3.8250 hc        1 NOG      0.047700
     33 HC8        -2.3770   -3.0740    1.3250 hc        1 NOG      0.056700
     34 HC9        -2.1530   -0.0020    1.6840 hc        1 NOG      0.055700
     35 H10C       -0.3960   -2.0560    0.1680 hc        1 NOG      0.063700
     36 H111       -2.4130    0.2050   -0.7370 hc        1 NOG      0.043200
     37 H112       -2.5460   -1.5890   -0.9380 hc        1 NOG      0.043200
     38 H121       -4.5150    0.3040    0.5250 hc        1 NOG      0.052200
     39 H122       -4.7750   -0.5150   -1.0630 hc        1 NOG      0.052200
     40 H14C       -4.2210   -0.9090    2.5300 hc        1 NOG      0.054700
     41 H151       -4.7420   -2.7680    3.9340 hc        1 NOG      0.046200
     42 H152       -4.5660   -3.9680    2.5930 hc        1 NOG      0.046200
     43 H161       -6.8330   -3.6430    2.1430 hc        1 NOG      0.055200
     44 H162       -6.9140   -2.2100    3.2480 hc        1 NOG      0.055200
     45 H181       -5.2800   -3.9230    0.3050 hc        1 NOG      0.040700
     46 H182       -3.5850   -3.4560   -0.1130 hc        1 NOG      0.040700
     47 H191       -5.0670   -3.9970   -2.0870 hc        1 NOG      0.037367
     48 H192       -4.2900   -2.3670   -2.1730 hc        1 NOG      0.037367
     49 H193       -6.0420   -2.5120   -1.7280 hc        1 NOG      0.037367
     50 H21C       -7.2770    1.6980    2.1320 ha        1 NOG      0.166500
     51 H17O       -8.0740   -2.1630    0.5040 ho        1 NOG      0.404000
@<TRIPOS>BOND
     1    1    2 1   
     2    1   10 1   
     3    1   24 1   
     4    1   25 1   
     5    2    3 1   
     6    2   26 1   
     7    2   27 1   
     8    3    4 1   
     9    3   22 2   
    10    4    5 2   
    11    4   28 1   
    12    5    6 1   
    13    5   10 1   
    14    6    7 1   
    15    6   29 1   
    16    6   30 1   
    17    7    8 1   
    18    7   31 1   
    19    7   32 1   
    20    8    9 1   
    21    8   14 1   
    22    8   33 1   
    23    9   10 1   
    24    9   11 1   
    25    9   34 1   
    26   10   35 1   
    27   11   12 1   
    28   11   36 1   
    29   11   37 1   
    30   12   13 1   
    31   12   38 1   
    32   12   39 1   
    33   13   14 1   
    34   13   17 1   
    35   13   18 1   
    36   14   15 1   
    37   14   40 1   
    38   15   16 1   
    39   15   41 1   
    40   15   42 1   
    41   16   17 1   
    42   16   43 1   
    43   16   44 1   
    44   17   20 1   
    45   17   23 1   
    46   18   19 1   
    47   18   45 1   
    48   18   46 1   
    49   19   47 1   
    50   19   48 1   
    51   19   49 1   
    52   20   21 3   
    53   21   50 1   
    54   23   51 1   
@<TRIPOS>SUBSTRUCTURE
     1 NOG         1 TEMP              0 ****  ****    0 ROOT
