@<TRIPOS>MOLECULE
molecule
   51    54     1     0     0
SMALL
bcc


@<TRIPOS>ATOM
      1 C1           0.0000     0.0000     0.0000 c3         1 NOG      -0.071400
      2 C2           1.5280     0.0000     0.0000 c3         1 NOG      -0.180400
      3 C3           1.9830     0.0000     1.4460 c          1 NOG       0.570300
      4 C4           1.3680    -1.0010     2.3230 ce         1 NOG      -0.263200
      5 C5           0.1960    -1.5440     1.9950 c2         1 NOG      -0.047400
      6 C6          -0.3840    -2.5870     2.9320 c3         1 NOG      -0.051200
      7 C7          -1.8430    -2.2270     3.2200 c3         1 NOG      -0.075400
      8 C8          -2.6000    -2.0990     1.8960 c3         1 NOG      -0.062700
      9 C9          -2.0330    -0.9120     1.1060 c3         1 NOG      -0.056700
     10 C10         -0.5640    -1.1980     0.7670 c3         1 NOG      -0.036500
     11 C11         -2.8050    -0.6680    -0.1860 c3         1 NOG      -0.080400
     12 C12         -4.3100    -0.5010     0.0750 c3         1 NOG      -0.062400
     13 C13         -4.7820    -1.7550     0.7830 c3         1 NOG      -0.047000
     14 C14         -4.0750    -1.7970     2.1620 c3         1 NOG      -0.067700
     15 C15         -4.8540    -2.8990     2.8910 c3         1 NOG      -0.074400
     16 C16         -6.3260    -2.6090     2.4880 c3         1 NOG      -0.100400
     17 C17         -6.2620    -1.8210     1.1430 c3         1 NOG       0.245900
     18 C18         -4.3950    -2.9880    -0.0350 c3         1 NOG      -0.068400
     19 C19         -4.9160    -2.8360    -1.4660 c3         1 NOG      -0.084100
     20 C20         -6.7930    -0.4610     1.3240 c1         1 NOG      -0.172100
     21 C21         -7.2200     0.6210     1.4880 c1         1 NOG      -0.133500
     22 O3           2.8110     0.7860     1.8550 o          1 NOG      -0.524100
     23 O17         -6.9980    -2.5100     0.1310 oh         1 NOG      -0.587800
     24 HC11        -0.3520    -0.0400    -1.0240 hc         1 NOG       0.051700
     25 HC12        -0.3520     0.9130     0.4650 hc         1 NOG       0.051700
     26 HC21         1.8950    -0.8880    -0.5000 hc         1 NOG       0.068700
     27 HC22         1.8950     0.8880    -0.5000 hc         1 NOG       0.068700
     28 HC4          1.8670    -1.3010     3.2360 ha         1 NOG       0.150000
     29 HC61         0.1770    -2.5950     3.8580 hc         1 NOG       0.054700
     30 HC62        -0.3370    -3.5620     2.4630 hc         1 NOG       0.054700
     31 HC71        -1.8840    -1.2850     3.7520 hc         1 NOG       0.048200
     32 HC72        -2.2950    -3.0080     3.8200 hc         1 NOG       0.048200
     33 HC8         -2.5030    -3.0110     1.3200 hc         1 NOG       0.066700
     34 HC9         -2.0850    -0.0220     1.7210 hc         1 NOG       0.057700
     35 H10C        -0.5360    -2.0560     0.1070 hc         1 NOG       0.062700
     36 H111        -2.4280     0.2320    -0.6560 hc         1 NOG       0.046700
     37 H112        -2.6540    -1.5100    -0.8510 hc         1 NOG       0.046700
     38 H121        -4.8370    -0.3900    -0.8660 hc         1 NOG       0.053200
     39 H122        -4.4810     0.3630     0.7050 hc         1 NOG       0.053200
     40 H14C        -4.1850    -0.8490     2.6740 hc         1 NOG       0.063700
     41 H151        -4.7270    -2.8100     3.9640 hc         1 NOG       0.049700
     42 H152        -4.5480    -3.8780     2.5420 hc         1 NOG       0.049700
     43 H161        -6.8070    -2.0060     3.2490 hc         1 NOG       0.056200
     44 H162        -6.8620    -3.5400     2.3480 hc         1 NOG       0.056200
     45 H181        -3.3160    -3.0850    -0.0530 hc         1 NOG       0.046700
     46 H182        -4.8290    -3.8720     0.4150 hc         1 NOG       0.046700
     47 H191        -4.0870    -2.6330    -2.1330 hc         1 NOG       0.036033
     48 H192        -5.6220    -2.0150    -1.5080 hc         1 NOG       0.036033
     49 H193        -5.4090    -3.7510    -1.7700 hc         1 NOG       0.036033
     50 H21C        -7.5070     1.5150     2.0280 ha         1 NOG       0.166500
     51 H17O        -7.9220    -2.4090     0.2900 ho         1 NOG       0.405000
@<TRIPOS>BOND
     1     1     2 1
     2     1    10 1
     3     1    24 1
     4     1    25 1
     5     2     3 1
     6     2    26 1
     7     2    27 1
     8     3     4 1
     9     3    22 2
    10     4     5 2
    11     4    28 1
    12     5     6 1
    13     5    10 1
    14     6     7 1
    15     6    29 1
    16     6    30 1
    17     7     8 1
    18     7    31 1
    19     7    32 1
    20     8     9 1
    21     8    14 1
    22     8    33 1
    23     9    10 1
    24     9    11 1
    25     9    34 1
    26    10    35 1
    27    11    12 1
    28    11    36 1
    29    11    37 1
    30    12    13 1
    31    12    38 1
    32    12    39 1
    33    13    14 1
    34    13    17 1
    35    13    18 1
    36    14    15 1
    37    14    40 1
    38    15    16 1
    39    15    41 1
    40    15    42 1
    41    16    17 1
    42    16    43 1
    43    16    44 1
    44    17    20 1
    45    17    23 1
    46    18    19 1
    47    18    45 1
    48    18    46 1
    49    19    47 1
    50    19    48 1
    51    19    49 1
    52    20    21 3
    53    21    50 1
    54    23    51 1
@<TRIPOS>SUBSTRUCTURE
     1 NOG         1 TEMP              0 ****  ****    0 ROOT
