@<TRIPOS>MOLECULE
molecule
   24    24     1     0     0
SMALL
bcc


@<TRIPOS>ATOM
      1 C1           0.0000     0.0000     0.0000 c3         1 NOJ       0.137800
      2 C2           1.5300     0.0000     0.0000 c3         1 NOJ       0.137100
      3 O2           2.0070    -1.1680    -0.6720 oh         1 NOJ      -0.603800
      4 C3           2.0360     0.0000     1.4460 c3         1 NOJ       0.129100
      5 O3           3.4640     0.0570     1.4520 oh         1 NOJ      -0.605800
      6 C4           1.4720     1.2230     2.1750 c3         1 NOJ       0.141100
      7 O4           1.8930     1.2000     3.5400 oh         1 NOJ      -0.606800
      8 C5          -0.0570     1.1880     2.1120 c3         1 NOJ       0.163500
      9 N5          -0.4910     1.1890     0.7090 n7         1 NOJ      -0.821200
     10 C6          -0.6250     2.4180     2.8220 c3         1 NOJ       0.143400
     11 O6          -2.0510     2.3270     2.8650 oh         1 NOJ      -0.619800
     12 H11         -0.3600    -0.8910     0.5000 h1         1 NOJ       0.045200
     13 H12         -0.3600     0.0170    -1.0220 h1         1 NOJ       0.045200
     14 H2           1.8900     0.8870    -0.5070 h1         1 NOJ       0.056700
     15 HO2          2.3490    -0.9270    -1.5180 ho         1 NOJ       0.408000
     16 H3           1.7020    -0.9020     1.9440 h1         1 NOJ       0.057700
     17 HO3          3.8070    -0.7040     1.8910 ho         1 NOJ       0.413000
     18 H4           1.8310     2.1250     1.6950 h1         1 NOJ       0.057700
     19 HO4          2.5540     1.8580     3.6760 ho         1 NOJ       0.411000
     20 H5          -0.4150     0.2880     2.5970 h1         1 NOJ       0.047700
     21 HN5         -1.4910     1.2130     0.6690 hn         1 NOJ       0.382800
     22 H61         -0.2360     2.4640     3.8320 h1         1 NOJ       0.036200
     23 H62         -0.3370     3.3120     2.2830 h1         1 NOJ       0.036200
     24 HO6         -2.3900     2.9770     3.4580 ho         1 NOJ       0.407000
@<TRIPOS>BOND
     1     1     2 1
     2     1     9 1
     3     1    12 1
     4     1    13 1
     5     2     3 1
     6     2     4 1
     7     2    14 1
     8     3    15 1
     9     4     5 1
    10     4     6 1
    11     4    16 1
    12     5    17 1
    13     6     7 1
    14     6     8 1
    15     6    18 1
    16     7    19 1
    17     8     9 1
    18     8    10 1
    19     8    20 1
    20     9    21 1
    21    10    11 1
    22    10    22 1
    23    10    23 1
    24    11    24 1
@<TRIPOS>SUBSTRUCTURE
     1 NOJ         1 TEMP              0 ****  ****    0 ROOT
