@<TRIPOS>MOLECULE
NOK
   31    31     1     0     0
SMALL
bcc


@<TRIPOS>ATOM
      1 C8          0.8600    0.6330    0.5070 c3        1 NOK     -0.186100
      2 C7          1.2750   -0.6530   -0.1180 c         1 NOK      0.557100
      3 O7          1.1790   -1.7850    0.3250 o         1 NOK     -0.403100
      4 N2          1.8800   -0.5480   -1.5060 n4        1 NOK     -0.682800
      5 C2          3.3620   -0.3080   -1.4490 c3        1 NOK      0.112500
      6 C1          4.1570   -1.6030   -1.1230 c3        1 NOK      0.163800
      7 N5          5.5530   -1.2680   -0.9990 n3        1 NOK     -0.825200
      8 C5          6.1360   -0.7460   -2.2310 c3        1 NOK      0.136500
      9 C6          7.6360   -0.4360   -2.0400 c3        1 NOK      0.134400
     10 O6          8.2650   -1.6790   -1.7840 oh        1 NOK     -0.603800
     11 C4          5.3900    0.5360   -2.6760 c3        1 NOK      0.117100
     12 O4          5.7610    0.9240   -3.9870 oh        1 NOK     -0.599800
     13 C3          3.8790    0.2480   -2.7950 c3        1 NOK      0.129100
     14 O3          3.1390    1.4270   -3.0560 oh        1 NOK     -0.635800
     15 H8C1        0.6210    0.4430    1.5880 hc        1 NOK      0.116700
     16 H8C2        1.6670    1.4060    0.4430 hc        1 NOK      0.116700
     17 H8C3       -0.0620    1.0240    0.0020 hc        1 NOK      0.116700
     18 H2          1.7020   -1.4160   -2.0270 hn        1 NOK      0.468300
     19 HA          3.5340    0.4700   -0.6450 hx        1 NOK      0.124700
     20 H1C1        3.9440   -2.3630   -1.9320 h1        1 NOK      0.061200
     21 H1C2        3.8060   -2.0260   -0.1390 h1        1 NOK      0.061200
     22 H3          3.7100   -0.4920   -3.6280 h1        1 NOK      0.077700
     23 H5          6.0950   -2.0380   -0.6480 hn        1 NOK      0.427800
     24 HB          6.0580   -1.4950   -3.0790 h1        1 NOK      0.065700
     25 H6C1        7.7990    0.2740   -1.1870 h1        1 NOK      0.041700
     26 H6C2        8.0410    0.0110   -2.9870 h1        1 NOK      0.041700
     27 H4          5.5710    1.3770   -1.9520 h1        1 NOK      0.073700
     28 H6          9.2010   -1.4950   -1.6320 ho        1 NOK      0.427000
     29 HC          6.6740    1.2400   -3.9530 ho        1 NOK      0.434000
     30 HD          3.5900    1.8990   -3.7740 ho        1 NOK      0.466000
     31 H22         1.4540    0.2410   -2.0130 hn        1 NOK      0.468300
@<TRIPOS>BOND
     1    1    2 1   
     2    1   15 1   
     3    1   16 1   
     4    1   17 1   
     5    2    3 2   
     6    2    4 1   
     7    4    5 1   
     8    4   18 1   
     9    4   31 1   
    10    5    6 1   
    11    5   13 1   
    12    5   19 1   
    13    6    7 1   
    14    6   20 1   
    15    6   21 1   
    16    7    8 1   
    17    7   23 1   
    18    8    9 1   
    19    8   11 1   
    20    8   24 1   
    21    9   10 1   
    22    9   25 1   
    23    9   26 1   
    24   10   28 1   
    25   11   12 1   
    26   11   13 1   
    27   11   27 1   
    28   12   29 1   
    29   13   14 1   
    30   13   22 1   
    31   14   30 1   
@<TRIPOS>SUBSTRUCTURE
     1 NOK         1 TEMP              0 ****  ****    0 ROOT
