@<TRIPOS>MOLECULE
NOL
   93    95     1     0     0
SMALL
bcc


@<TRIPOS>ATOM
      1 C1           0.0000     0.0000     0.0000 ca         1 NOL      -0.073000
      2 C2           1.3830     0.0000     0.0000 ca         1 NOL      -0.119300
      3 C3           2.0730     0.0000     1.1970 ca         1 NOL      -0.073000
      4 C4           1.3810    -0.0040     2.3950 ca         1 NOL      -0.107000
      5 C5          -0.0010    -0.0100     2.3940 ca         1 NOL      -0.090000
      6 C6          -0.6910    -0.0090     1.1960 ca         1 NOL      -0.107000
      7 C13          2.1370     0.0060    -1.3040 c3         1 NOL       0.309700
      8 O15          2.3840    -1.3620    -1.7260 os         1 NOL      -0.423900
      9 C17          3.0480    -1.6040    -2.8720 c          1 NOL       0.683100
     10 N19          3.2780    -2.8730    -3.2630 ns         1 NOL      -0.133900
     11 C21          4.0460    -3.1360    -4.4830 c3         1 NOL      -0.055300
     12 C23          3.4490    -4.3150    -5.2080 c          1 NOL       0.569100
     13 N25          3.7170    -4.5090    -6.5140 ns         1 NOL      -0.163900
     14 C27          3.0590    -5.5950    -7.2430 c3         1 NOL      -0.067300
     15 C29          3.9120    -6.0010    -8.4180 c          1 NOL       0.567100
     16 N31          3.5040    -6.9900    -9.2380 ns         1 NOL      -0.167900
     17 C33          4.3330    -7.3840   -10.3800 c3         1 NOL       0.004700
     18 C35          4.0480    -6.4550   -11.5620 c3         1 NOL       0.205400
     19 O39          2.6990    -6.6340   -11.9950 oh         1 NOL      -0.597800
     20 C41          4.0050    -8.8250   -10.7740 c3         1 NOL      -0.021400
     21 C43          4.3990    -9.7680    -9.6350 c3         1 NOL      -0.142700
     22 C45          5.9290    -9.7350    -9.4090 c3         1 NOL      -0.037400
     23 C47          6.2260   -11.2080    -9.0530 c3         1 NOL       0.043000
     24 N49          5.1520   -11.9870    -9.6800 ns         1 NOL      -0.204900
     25 C51          4.1070   -11.2040   -10.0100 c          1 NOL       0.624500
     26 O54          3.0850   -11.5930   -10.5350 o          1 NOL      -0.664500
     27 O56          4.9660    -5.4380    -8.6250 o          1 NOL      -0.669100
     28 C58          1.6930    -5.1200    -7.7440 c3         1 NOL      -0.037400
     29 C60          0.7850    -4.8270    -6.5490 c3         1 NOL      -0.062700
     30 C62         -0.5350    -4.2340    -7.0450 c3         1 NOL      -0.029400
     31 C63         -1.4430    -3.9400    -5.8490 c3         1 NOL      -0.019900
     32 C64         -1.7210    -5.2380    -5.0890 c3         1 NOL      -0.027400
     33 C65         -0.4010    -5.8320    -4.5930 c3         1 NOL      -0.019900
     34 C66          0.5080    -6.1250    -5.7890 c3         1 NOL      -0.029400
     35 O73          2.7280    -5.0890    -4.6160 o          1 NOL      -0.644100
     36 C75          5.4980    -3.4450    -4.1150 c3         1 NOL       0.129100
     37 C77          6.0960    -2.2580    -3.3560 c3         1 NOL      -0.063100
     38 O79          5.5420    -4.6100    -3.2880 os         1 NOL      -0.373600
     39 C81          6.6730    -5.3740    -3.7110 c3         1 NOL       0.145800
     40 C83          7.9350    -4.5140    -3.6160 c3         1 NOL      -0.031100
     41 C85          6.8230    -6.6040    -2.8120 c3         1 NOL      -0.031100
     42 C87          6.4710    -5.8230    -5.1600 c3         1 NOL      -0.031100
     43 O89          3.4400    -0.6770    -3.5540 o          1 NOL      -0.682000
     44 H1          -0.5420     0.0000    -0.9380 ha         1 NOL       0.106000
     45 H3           3.1560     0.0020     1.1980 ha         1 NOL       0.106000
     46 H4           1.9220    -0.0040     3.3330 ha         1 NOL       0.103000
     47 H5          -0.5440    -0.0150     3.3320 ha         1 NOL       0.102000
     48 H6          -1.7740    -0.0110     1.1950 ha         1 NOL       0.103000
     49 H131         3.0820     0.5200    -1.1730 h1         1 NOL       0.011700
     50 H132         1.5500     0.5160    -2.0590 h1         1 NOL       0.011700
     51 HN19         2.9090    -3.6350    -2.7300 hn         1 NOL       0.204500
     52 H21          4.0140    -2.2630    -5.1250 h1         1 NOL       0.078700
     53 HN25         4.3270    -3.8810    -6.9980 hn         1 NOL       0.198500
     54 H27          2.9260    -6.4440    -6.5840 h1         1 NOL       0.077700
     55 HN31         2.6390    -7.4620    -9.0610 hn         1 NOL       0.190500
     56 H33          5.3790    -7.3120   -10.1080 h1         1 NOL       0.060700
     57 H351         4.1950    -5.4260   -11.2560 h1         1 NOL       0.000700
     58 H352         4.7230    -6.6890   -12.3760 h1         1 NOL       0.000700
     59 HO39         2.5560    -6.1490   -12.7900 ho         1 NOL       0.396000
     60 H411         2.9420    -8.9140   -10.9650 hc         1 NOL       0.044200
     61 H412         4.5560    -9.0890   -11.6680 hc         1 NOL       0.044200
     62 H43          3.8790    -9.5050    -8.7220 hc         1 NOL       0.050700
     63 H451         6.1820    -9.0800    -8.5840 hc         1 NOL       0.032200
     64 H452         6.4460    -9.4450   -10.3160 hc         1 NOL       0.032200
     65 H471         7.1870   -11.5040    -9.4580 h1         1 NOL       0.016200
     66 H472         6.2080   -11.3440    -7.9790 h1         1 NOL       0.016200
     67 HN49         5.1900   -12.9740    -9.8420 hn         1 NOL       0.195500
     68 H581         1.2450    -5.8920    -8.3570 hc         1 NOL       0.025200
     69 H582         1.8180    -4.2190    -8.3330 hc         1 NOL       0.025200
     70 H60          1.2700    -4.1190    -5.8870 hc         1 NOL       0.048700
     71 H621        -1.0240    -4.9440    -7.7020 hc         1 NOL       0.019700
     72 H622        -0.3380    -3.3140    -7.5810 hc         1 NOL       0.019700
     73 H631        -0.9530    -3.2350    -5.1890 hc         1 NOL       0.015200
     74 H632        -2.3790    -3.5230    -6.2010 hc         1 NOL       0.015200
     75 H641        -2.2070    -5.9450    -5.7500 hc         1 NOL       0.011200
     76 H642        -2.3610    -5.0290    -4.2410 hc         1 NOL       0.011200
     77 H651         0.0870    -5.1240    -3.9350 hc         1 NOL       0.015200
     78 H652        -0.5990    -6.7530    -4.0580 hc         1 NOL       0.015200
     79 H661         0.0180    -6.8300    -6.4490 hc         1 NOL       0.019700
     80 H662         1.4430    -6.5420    -5.4360 hc         1 NOL       0.019700
     81 H75          6.0700    -3.6220    -5.0180 h1         1 NOL       0.043700
     82 H771         6.0150    -2.4330    -2.2900 hc         1 NOL       0.029033
     83 H772         7.1390    -2.1460    -3.6250 hc         1 NOL       0.029033
     84 H773         5.5560    -1.3550    -3.6160 hc         1 NOL       0.029033
     85 H831         7.9340    -3.9760    -2.6760 hc         1 NOL       0.016144
     86 H832         7.9540    -3.8080    -4.4370 hc         1 NOL       0.016144
     87 H833         8.8100    -5.1510    -3.6660 hc         1 NOL       0.016144
     88 H851         5.9210    -7.2020    -2.8650 hc         1 NOL       0.016144
     89 H852         6.9870    -6.2850    -1.7900 hc         1 NOL       0.016144
     90 H853         7.6680    -7.1940    -3.1460 hc         1 NOL       0.016144
     91 H871         5.5340    -6.3620    -5.2440 hc         1 NOL       0.016144
     92 H872         7.2870    -6.4720    -5.4550 hc         1 NOL       0.016144
     93 H873         6.4470    -4.9550    -5.8080 hc         1 NOL       0.016144
@<TRIPOS>BOND
     1     1     2 ar  
     2     1     6 ar  
     3     1    44 1   
     4     2     3 ar  
     5     2     7 1   
     6     3     4 ar  
     7     3    45 1   
     8     4     5 ar  
     9     4    46 1   
    10     5     6 ar  
    11     5    47 1   
    12     6    48 1   
    13     7     8 1   
    14     7    49 1   
    15     7    50 1   
    16     8     9 1   
    17     9    10 1   
    18     9    43 2   
    19    10    11 1   
    20    10    51 1   
    21    11    12 1   
    22    11    36 1   
    23    11    52 1   
    24    12    13 1   
    25    12    35 2   
    26    13    14 1   
    27    13    53 1   
    28    14    15 1   
    29    14    28 1   
    30    14    54 1   
    31    15    16 1   
    32    15    27 2   
    33    16    17 1   
    34    16    55 1   
    35    17    18 1   
    36    17    20 1   
    37    17    56 1   
    38    18    19 1   
    39    18    57 1   
    40    18    58 1   
    41    19    59 1   
    42    20    21 1   
    43    20    60 1   
    44    20    61 1   
    45    21    22 1   
    46    21    25 1   
    47    21    62 1   
    48    22    23 1   
    49    22    63 1   
    50    22    64 1   
    51    23    24 1   
    52    23    65 1   
    53    23    66 1   
    54    24    25 1   
    55    24    67 1   
    56    25    26 2   
    57    28    29 1   
    58    28    68 1   
    59    28    69 1   
    60    29    30 1   
    61    29    34 1   
    62    29    70 1   
    63    30    31 1   
    64    30    71 1   
    65    30    72 1   
    66    31    32 1   
    67    31    73 1   
    68    31    74 1   
    69    32    33 1   
    70    32    75 1   
    71    32    76 1   
    72    33    34 1   
    73    33    77 1   
    74    33    78 1   
    75    34    79 1   
    76    34    80 1   
    77    36    37 1   
    78    36    38 1   
    79    36    81 1   
    80    37    82 1   
    81    37    83 1   
    82    37    84 1   
    83    38    39 1   
    84    39    40 1   
    85    39    41 1   
    86    39    42 1   
    87    40    85 1   
    88    40    86 1   
    89    40    87 1   
    90    41    88 1   
    91    41    89 1   
    92    41    90 1   
    93    42    91 1   
    94    42    92 1   
    95    42    93 1   
@<TRIPOS>SUBSTRUCTURE
     1 NOL         1 TEMP              0 ****  ****    0 ROOT
