@<TRIPOS>MOLECULE
NOM
   34    37     1     0     0
SMALL
bcc


@<TRIPOS>ATOM
      1 C1          0.1280    0.2270    0.0600 ca        1 NOM     -0.072000
      2 C2          1.5070   -0.0110    0.0630 ca        1 NOM     -0.119000
      3 C3          2.1780   -0.2150    1.2670 ca        1 NOM     -0.098600
      4 C4          1.4820   -0.2020    2.4910 ca        1 NOM     -0.172600
      5 C5          0.0960    0.0460    2.4710 ca        1 NOM      0.174100
      6 C6         -0.5790    0.2610    1.2530 ca        1 NOM     -0.204000
      7 C10         3.6420   -0.4570    1.2520 c         1 NOM      0.577900
      8 C9          4.3240   -0.2080    2.5370 cc        1 NOM     -0.130400
      9 C8          3.6590   -0.1860    3.7180 cd        1 NOM     -0.158400
     10 C7          2.1970   -0.4600    3.7560 c         1 NOM      0.585900
     11 O3          1.6460   -0.8920    4.7720 o         1 NOM     -0.486100
     12 O4          4.2340   -0.8420    0.2410 o         1 NOM     -0.470100
     13 O2         -0.5540    0.0900    3.6760 oh        1 NOM     -0.467100
     14 C13         5.7990   -0.0650    2.6270 c3        1 NOM      0.131300
     15 C14         6.0880    0.9390    3.7830 c3        1 NOM      0.101100
     16 O1          5.7460    0.3020    4.9960 os        1 NOM     -0.391600
     17 C11         4.3190    0.0650    5.0520 c3        1 NOM      0.177300
     18 C12         3.6650    1.2300    5.7770 c3        1 NOM     -0.118100
     19 C15         7.5580    1.2680    3.5460 c3        1 NOM     -0.160400
     20 C16         7.6420    1.1340    2.0360 c         1 NOM      0.708600
     21 O5          8.4690    1.5170    1.2240 o         1 NOM     -0.543500
     22 O6          6.5370    0.4570    1.5080 os        1 NOM     -0.382900
     23 HC1        -0.3950    0.3890   -0.8950 ha        1 NOM      0.147000
     24 HC2         2.0710   -0.0450   -0.8830 ha        1 NOM      0.165000
     25 HC6        -1.6620    0.4510    1.2570 ha        1 NOM      0.144000
     26 HO2        -1.5000    0.2140    3.5060 ho        1 NOM      0.425000
     27 HC13        6.2350   -1.0820    2.8560 h1        1 NOM      0.092700
     28 HC14        5.4720    1.8730    3.6590 h1        1 NOM      0.066700
     29 HC11        4.2410   -0.8760    5.6740 h1        1 NOM      0.105700
     30 H121        2.6010    0.9800    6.0070 hc        1 NOM      0.056367
     31 H122        3.6990    2.1560    5.1550 hc        1 NOM      0.056367
     32 H123        4.2120    1.4230    6.7310 hc        1 NOM      0.056367
     33 H151        8.2420    0.5390    4.0450 hc        1 NOM      0.101200
     34 H152        7.8260    2.3020    3.8710 hc        1 NOM      0.101200
@<TRIPOS>BOND
     1    1    2 ar  
     2    1    6 ar  
     3    1   23 1   
     4    2    3 ar  
     5    2   24 1   
     6    3    4 ar  
     7    3    7 1   
     8    4    5 ar  
     9    4   10 1   
    10    5    6 ar  
    11    5   13 1   
    12    6   25 1   
    13    7    8 1   
    14    7   12 2   
    15    8    9 2   
    16    8   14 1   
    17    9   10 1   
    18    9   17 1   
    19   10   11 2   
    20   13   26 1   
    21   14   15 1   
    22   14   22 1   
    23   14   27 1   
    24   15   16 1   
    25   15   19 1   
    26   15   28 1   
    27   16   17 1   
    28   17   18 1   
    29   17   29 1   
    30   18   30 1   
    31   18   31 1   
    32   18   32 1   
    33   19   20 1   
    34   19   33 1   
    35   19   34 1   
    36   20   21 2   
    37   20   22 1   
@<TRIPOS>SUBSTRUCTURE
     1 NOM         1 TEMP              0 ****  ****    0 ROOT
