@<TRIPOS>MOLECULE
molecule
   34    37     1     0     0
SMALL
bcc


@<TRIPOS>ATOM
      1 C1           0.0000     0.0000     0.0000 ca         1 NOM      -0.083000
      2 C2           1.3880     0.0000     0.0000 ca         1 NOM      -0.106000
      3 C3           2.0800     0.0000     1.2030 ca         1 NOM      -0.111600
      4 C4           1.3750     0.0040     2.4200 ca         1 NOM      -0.167600
      5 C5          -0.0230     0.0020     2.4070 ca         1 NOM       0.173100
      6 C6          -0.7000     0.0000     1.1870 ca         1 NOM      -0.183000
      7 C10          3.6030    -0.0220     1.1980 c          1 NOM       0.578900
      8 C9           4.2780    -0.0060     2.5060 cc         1 NOM      -0.134400
      9 C8           3.6000     0.0110     3.6950 cd         1 NOM      -0.152400
     10 C7           2.1190     0.0090     3.6890 c          1 NOM       0.574900
     11 O3           1.5130     0.0120     4.7430 o          1 NOM      -0.484100
     12 O4           4.2060    -0.0390     0.1430 o          1 NOM      -0.466100
     13 O2          -0.7160     0.0020     3.5720 oh         1 NOM      -0.481100
     14 C13          5.7630    -0.0230     2.6090 c3         1 NOM       0.144300
     15 C14          6.1290     0.7320     3.9250 c3         1 NOM       0.088100
     16 O1           5.7050    -0.1080     4.9740 os         1 NOM      -0.369600
     17 C11          4.2860     0.0440     5.0360 c3         1 NOM       0.172300
     18 C12          3.9690     1.3810     5.7100 c3         1 NOM      -0.119100
     19 C15          7.6390     0.8810     3.6970 c3         1 NOM      -0.191400
     20 C16          7.6920     1.1350     2.1890 c          1 NOM       0.733600
     21 O5           8.5980     1.6790     1.6020 o          1 NOM      -0.544500
     22 O6           6.5590     0.6530     1.6160 os         1 NOM      -0.374900
     23 HC1         -0.5370    -0.0010    -0.9410 ha         1 NOM       0.143000
     24 HC2          1.9310    -0.0000    -0.9380 ha         1 NOM       0.161000
     25 HC6         -1.7830     0.0000     1.1740 ha         1 NOM       0.145000
     26 HO2         -1.3520    -0.6940     3.5600 ho         1 NOM       0.427000
     27 HC13         6.0960    -1.0500     2.6880 h1         1 NOM       0.090700
     28 HC14         5.6390     1.6970     3.9670 h1         1 NOM       0.075700
     29 HC11         3.8830    -0.7570     5.6440 h1         1 NOM       0.106700
     30 H121         3.1440     1.2510     6.4000 hc         1 NOM       0.055033
     31 H122         4.8410     1.7280     6.2510 hc         1 NOM       0.055033
     32 H123         3.6980     2.1110     4.9560 hc         1 NOM       0.055033
     33 H151         8.1610    -0.0330     3.9530 hc         1 NOM       0.094200
     34 H152         8.0310     1.7290     4.2460 hc         1 NOM       0.094200
@<TRIPOS>BOND
     1     1     2 ar
     2     1     6 ar
     3     1    23 1
     4     2     3 ar
     5     2    24 1
     6     3     4 ar
     7     3     7 1
     8     4     5 ar
     9     4    10 1
    10     5     6 ar
    11     5    13 1
    12     6    25 1
    13     7     8 1
    14     7    12 2
    15     8     9 2
    16     8    14 1
    17     9    10 1
    18     9    17 1
    19    10    11 2
    20    13    26 1
    21    14    15 1
    22    14    22 1
    23    14    27 1
    24    15    16 1
    25    15    19 1
    26    15    28 1
    27    16    17 1
    28    17    18 1
    29    17    29 1
    30    18    30 1
    31    18    31 1
    32    18    32 1
    33    19    20 1
    34    19    33 1
    35    19    34 1
    36    20    21 2
    37    20    22 1
@<TRIPOS>SUBSTRUCTURE
     1 NOM         1 TEMP              0 ****  ****    0 ROOT
