@<TRIPOS>MOLECULE
NON
   32    31     1     0     0
SMALL
bcc


@<TRIPOS>ATOM
      1 C1          0.1110    0.2530   -0.0300 c         1 NON      0.629100
      2 C2          1.6050    0.1820   -0.0150 c3        1 NON     -0.126400
      3 C3          2.1280    0.0280    1.3980 c3        1 NON     -0.079400
      4 C4          3.6400    0.0970    1.4210 c3        1 NON     -0.078400
      5 C5          4.1710   -0.0750    2.8280 c3        1 NON     -0.079400
      6 C6          5.6830   -0.0030    2.8560 c3        1 NON     -0.079400
      7 C7          6.2140   -0.1740    4.2630 c3        1 NON     -0.079400
      8 C8          7.7260   -0.1010    4.2940 c3        1 NON     -0.080400
      9 C9          8.2590   -0.2720    5.6930 c3        1 NON     -0.093100
     10 O1         -0.6540    0.7850    0.7760 o         1 NON     -0.541000
     11 O2         -0.4360   -0.3620   -1.1260 os        1 NON     -0.443900
     12 CM         -1.8580   -0.3240   -1.2420 c3        1 NON      0.125700
     13 H21         1.9900    1.1340   -0.4720 hc        1 NON      0.078200
     14 H22         1.9490   -0.6700   -0.6580 hc        1 NON      0.078200
     15 H31         1.7860   -0.9530    1.8210 hc        1 NON      0.057700
     16 H32         1.6960    0.8370    2.0460 hc        1 NON      0.057700
     17 H41         4.0650   -0.7030    0.7580 hc        1 NON      0.041200
     18 H42         3.9800    1.0840    1.0090 hc        1 NON      0.041200
     19 H51         3.8330   -1.0630    3.2400 hc        1 NON      0.042700
     20 H52         3.7430    0.7230    3.4910 hc        1 NON      0.042700
     21 H61         6.1100   -0.8000    2.1930 hc        1 NON      0.039700
     22 H62         6.0200    0.9850    2.4450 hc        1 NON      0.039700
     23 H71         5.8770   -1.1630    4.6750 hc        1 NON      0.040200
     24 H72         5.7860    0.6230    4.9270 hc        1 NON      0.040200
     25 H81         8.1520   -0.8980    3.6280 hc        1 NON      0.038700
     26 H82         8.0600    0.8870    3.8810 hc        1 NON      0.038700
     27 H91         7.9560   -1.2620    6.1120 hc        1 NON      0.032700
     28 H92         9.3740   -0.2150    5.6930 hc        1 NON      0.032700
     29 H93         7.8650    0.5280    6.3660 hc        1 NON      0.032700
     30 HM1        -2.0610   -0.8770   -2.1920 h1        1 NON      0.050367
     31 HM2        -2.3260   -0.8310   -0.3650 h1        1 NON      0.050367
     32 HM3        -2.2070    0.7350   -1.3020 h1        1 NON      0.050367
@<TRIPOS>BOND
     1    1    2 1   
     2    1   10 2   
     3    1   11 1   
     4    2    3 1   
     5    2   13 1   
     6    2   14 1   
     7    3    4 1   
     8    3   15 1   
     9    3   16 1   
    10    4    5 1   
    11    4   17 1   
    12    4   18 1   
    13    5    6 1   
    14    5   19 1   
    15    5   20 1   
    16    6    7 1   
    17    6   21 1   
    18    6   22 1   
    19    7    8 1   
    20    7   23 1   
    21    7   24 1   
    22    8    9 1   
    23    8   25 1   
    24    8   26 1   
    25    9   27 1   
    26    9   28 1   
    27    9   29 1   
    28   11   12 1   
    29   12   30 1   
    30   12   31 1   
    31   12   32 1   
@<TRIPOS>SUBSTRUCTURE
     1 NON         1 TEMP              0 ****  ****    0 ROOT
