@<TRIPOS>MOLECULE
molecule
   32    31     1     0     0
SMALL
bcc


@<TRIPOS>ATOM
      1 C1           0.0000     0.0000     0.0000 c          1 NON       0.635100
      2 C2           1.5090     0.0000     0.0000 c3         1 NON      -0.138400
      3 C3           2.0940     0.0000     1.4090 c3         1 NON      -0.073400
      4 C4           3.6260    -0.0190     1.4060 c3         1 NON      -0.077400
      5 C5           4.1810    -0.0500     2.8330 c3         1 NON      -0.077400
      6 C6           5.7110    -0.0820     2.8910 c3         1 NON      -0.078400
      7 C7           6.2650    -0.1380     4.3170 c3         1 NON      -0.077400
      8 C8           7.7930    -0.0960     4.3180 c3         1 NON      -0.082400
      9 C9           8.3490    -0.1130     5.7340 c3         1 NON      -0.090100
     10 O1          -0.6790     0.0390     1.0180 o          1 NON      -0.527000
     11 O2          -0.4690    -0.0510    -1.2800 os         1 NON      -0.421900
     12 CM          -1.8940    -0.0600    -1.4130 c3         1 NON       0.122700
     13 H21          1.8580     0.8810    -0.5240 hc         1 NON       0.072200
     14 H22          1.8580    -0.8810    -0.5240 hc         1 NON       0.072200
     15 H31          1.7560     0.8880     1.9280 hc         1 NON       0.054200
     16 H32          1.7340    -0.8740     1.9380 hc         1 NON       0.054200
     17 H41          3.9920     0.8670     0.9020 hc         1 NON       0.039700
     18 H42          3.9690    -0.8980     0.8730 hc         1 NON       0.039700
     19 H51          3.7960    -0.9290     3.3350 hc         1 NON       0.040700
     20 H52          3.8320     0.8310     3.3590 hc         1 NON       0.040700
     21 H61          6.0950     0.8070     2.4050 hc         1 NON       0.037700
     22 H62          6.0600    -0.9530     2.3490 hc         1 NON       0.037700
     23 H71          5.8860     0.7070     4.8780 hc         1 NON       0.040200
     24 H72          5.9350    -1.0550     4.7900 hc         1 NON       0.040200
     25 H81          8.1710    -0.9560     3.7790 hc         1 NON       0.038700
     26 H82          8.1230     0.8070     3.8190 hc         1 NON       0.038700
     27 H91          7.9890     0.7550     6.2730 hc         1 NON       0.033367
     28 H92          8.0230    -1.0140     6.2390 hc         1 NON       0.033367
     29 H93          9.4320    -0.0910     5.6970 hc         1 NON       0.033367
     30 HM1         -2.1580    -0.1030    -2.4630 h1         1 NON       0.047367
     31 HM2         -2.2990    -0.9260    -0.9030 h1         1 NON       0.047367
     32 HM3         -2.3030     0.8420    -0.9740 h1         1 NON       0.047367
@<TRIPOS>BOND
     1     1     2 1
     2     1    10 2
     3     1    11 1
     4     2     3 1
     5     2    13 1
     6     2    14 1
     7     3     4 1
     8     3    15 1
     9     3    16 1
    10     4     5 1
    11     4    17 1
    12     4    18 1
    13     5     6 1
    14     5    19 1
    15     5    20 1
    16     6     7 1
    17     6    21 1
    18     6    22 1
    19     7     8 1
    20     7    23 1
    21     7    24 1
    22     8     9 1
    23     8    25 1
    24     8    26 1
    25     9    27 1
    26     9    28 1
    27     9    29 1
    28    11    12 1
    29    12    30 1
    30    12    31 1
    31    12    32 1
@<TRIPOS>SUBSTRUCTURE
     1 NON         1 TEMP              0 ****  ****    0 ROOT
