@<TRIPOS>MOLECULE
molecule
   40    40     1     0     0
SMALL
bcc


@<TRIPOS>ATOM
      1 C1           0.0000     0.0000     0.0000 c          1 NOO       0.579300
      2 O1          -0.6030     0.0040    -1.0550 o          1 NOO      -0.537100
      3 C2           1.4020     0.0000     0.0000 ce         1 NOO      -0.303200
      4 C3           2.1090     0.0000     1.1460 c2         1 NOO       0.110400
      5 C4           1.4240     0.0050     2.4860 c3         1 NOO      -0.059200
      6 C5           0.0720    -0.7050     2.3710 c3         1 NOO      -0.078400
      7 C6          -0.7660     0.0020     1.2970 c3         1 NOO      -0.181400
      8 N7           3.4790    -0.0070     1.0920 ns         1 NOO      -0.508100
      9 C8           4.1820     0.9760     1.6890 c          1 NOO       0.660100
     10 O8           3.6080     1.8170     2.3480 o          1 NOO      -0.588100
     11 C9           5.6800     1.0300     1.5380 c3         1 NOO      -0.157400
     12 C10          6.2280     2.2330     2.3090 c3         1 NOO      -0.067400
     13 C11          7.7490     2.2870     2.1560 c3         1 NOO      -0.085400
     14 C12          8.2970     3.4900     2.9260 c3         1 NOO      -0.080400
     15 C13          9.8180     3.5440     2.7730 c3         1 NOO      -0.081400
     16 C14         10.3650     4.7470     3.5440 c3         1 NOO      -0.084400
     17 C15         11.8870     4.8010     3.3910 c3         1 NOO      -0.092100
     18 H2           1.9300    -0.0040    -0.9460 ha         1 NOO       0.151000
     19 H4           1.2670     1.0280     2.8060 hc         1 NOO       0.074700
     20 H4A          2.0420    -0.5130     3.2090 hc         1 NOO       0.074700
     21 H5          -0.4440    -0.6580     3.3230 hc         1 NOO       0.050700
     22 H5A          0.2290    -1.7390     2.0870 hc         1 NOO       0.050700
     23 H6          -1.7030    -0.5250     1.1650 hc         1 NOO       0.073700
     24 H6A         -0.9580     1.0230     1.6020 hc         1 NOO       0.073700
     25 HN7          3.9570    -0.7270     0.5860 hn         1 NOO       0.329500
     26 H9           6.1160     0.1190     1.9320 hc         1 NOO       0.062700
     27 H9A          5.9340     1.1270     0.4890 hc         1 NOO       0.062700
     28 H10          5.7930     3.1430     1.9140 hc         1 NOO       0.059700
     29 H10A         5.9740     2.1360     3.3570 hc         1 NOO       0.059700
     30 H11          8.0030     2.3840     1.1070 hc         1 NOO       0.039200
     31 H11A         8.1850     1.3770     2.5500 hc         1 NOO       0.039200
     32 H12          8.0430     3.3930     3.9750 hc         1 NOO       0.044200
     33 H12A         7.8610     4.4000     2.5320 hc         1 NOO       0.044200
     34 H13         10.2530     2.6340     3.1680 hc         1 NOO       0.040700
     35 H13A        10.0720     3.6410     1.7250 hc         1 NOO       0.040700
     36 H14         10.1110     4.6500     4.5930 hc         1 NOO       0.040700
     37 H14A         9.9300     5.6570     3.1500 hc         1 NOO       0.040700
     38 H15         12.3220     3.8910     3.7850 hc         1 NOO       0.032700
     39 H15A        12.2750     5.6530     3.9370 hc         1 NOO       0.032700
     40 H15B        12.1410     4.8980     2.3420 hc         1 NOO       0.032700
@<TRIPOS>BOND
     1     1     2 2
     2     1     3 1
     3     1     7 1
     4     3     4 2
     5     4     5 1
     6     4     8 1
     7     5     6 1
     8     6     7 1
     9     8     9 1
    10     9    10 2
    11     9    11 1
    12    11    12 1
    13    12    13 1
    14    13    14 1
    15    14    15 1
    16    15    16 1
    17    16    17 1
    18     3    18 1
    19     5    19 1
    20     5    20 1
    21     6    21 1
    22     6    22 1
    23     7    23 1
    24     7    24 1
    25     8    25 1
    26    11    26 1
    27    11    27 1
    28    12    28 1
    29    12    29 1
    30    13    30 1
    31    13    31 1
    32    14    32 1
    33    14    33 1
    34    15    34 1
    35    15    35 1
    36    16    36 1
    37    16    37 1
    38    17    38 1
    39    17    39 1
    40    17    40 1
@<TRIPOS>SUBSTRUCTURE
     1 NOO         1 TEMP              0 ****  ****    0 ROOT
