@<TRIPOS>MOLECULE
NOP
   25    25     1     0     0
SMALL
bcc


@<TRIPOS>ATOM
      1 N1          0.1260    0.5550    0.0740 na        1 NOP      0.098000
      2 O1         -0.5670    1.0110   -0.8620 o         1 NOP     -0.594000
      3 C2          1.3830    0.0070   -0.1800 cc        1 NOP     -0.052200
      4 C2A         1.8780   -0.0580   -1.5830 c3        1 NOP     -0.010900
      5 C3          2.1430   -0.5030    0.8820 cd        1 NOP      0.032100
      6 O3          3.3610   -1.0760    0.5380 oh        1 NOP     -0.540100
      7 C4          1.7210   -0.4430    2.2400 cd        1 NOP     -0.193100
      8 C4A         2.7230   -0.4650    3.2830 c1        1 NOP      0.237600
      9 O4A         3.2740   -1.4190    3.8240 o         1 NOP     -0.631500
     10 C5          0.4200    0.0790    2.4500 cd        1 NOP     -0.105200
     11 C6         -0.3250    0.5720    1.3800 cc        1 NOP     -0.040000
     12 C5A        -0.1460    0.0980    3.8320 c3        1 NOP      0.223600
     13 O4P        -1.3160    0.8690    3.9090 os        1 NOP     -0.584200
     14 P          -2.1000    0.7600    5.3480 p5        1 NOP      1.425800
     15 O1P        -1.0080    1.5690    6.2660 oh        1 NOP     -0.782400
     16 O2P        -3.2440    1.6980    5.2940 o         1 NOP     -0.846500
     17 O3P        -2.1680   -0.6500    5.7820 o         1 NOP     -0.846500
     18 H2A1        1.6330    0.8850   -2.1330 hc        1 NOP      0.031033
     19 H2A2        2.9830   -0.2140   -1.5880 hc        1 NOP      0.031033
     20 H2A3        1.3890   -0.9080   -2.1210 hc        1 NOP      0.031033
     21 HO3         3.7760   -1.3570    1.3670 ho        1 NOP      0.424000
     22 H4A        -1.1440    2.5070    6.2170 ho        1 NOP      0.416000
     23 H6         -1.3310    1.0030    1.5360 h4        1 NOP      0.185000
     24 H5A1        0.6160    0.5320    4.5420 h1        1 NOP      0.045700
     25 H5A2       -0.3890   -0.9530    4.1640 h1        1 NOP      0.045700
@<TRIPOS>BOND
     1    1    2 1   
     2    1    3 1   
     3    1   11 1   
     4    3    4 1   
     5    3    5 2   
     6    4   18 1   
     7    4   19 1   
     8    4   20 1   
     9    5    6 1   
    10    5    7 1   
    11    6   21 1   
    12    7    8 2   
    13    7   10 1   
    14    8    9 2   
    15   10   11 2   
    16   10   12 1   
    17   11   23 1   
    18   12   13 1   
    19   12   24 1   
    20   12   25 1   
    21   13   14 1   
    22   14   15 1   
    23   14   16 1   
    24   14   17 1   
    25   15   22 1   
@<TRIPOS>SUBSTRUCTURE
     1 NOP         1 TEMP              0 ****  ****    0 ROOT
