@<TRIPOS>MOLECULE
molecule
   25    25     1     0     0
SMALL
bcc


@<TRIPOS>ATOM
      1 N1           0.0000     0.0000     0.0000 na         1 NOP       0.314600
      2 O1          -0.6680    -0.0580    -0.9890 o          1 NOP      -0.344000
      3 C2           1.3560     0.0000     0.0000 ca         1 NOP      -0.282600
      4 C2A          2.0930    -0.0190    -1.3080 c3         1 NOP      -0.016800
      5 C3           2.0440     0.0000     1.2020 ca         1 NOP       0.173100
      6 O3           3.3890    -0.0520     1.2290 oh         1 NOP      -0.516100
      7 C4           1.3690     0.0260     2.3880 ca         1 NOP      -0.220600
      8 C4A          2.1450     0.0630     3.6610 c          1 NOP       0.610500
      9 O4A          3.3130     0.5360     3.7850 o          1 NOP      -0.592100
     10 C5          -0.0580     0.0310     2.3320 ca         1 NOP       0.054700
     11 C6          -0.6850     0.0260     1.1460 ca         1 NOP      -0.243300
     12 C5A         -0.9230    -0.0300     3.5380 c3         1 NOP       0.220700
     13 O4P         -1.0770     1.1840     4.2460 os         1 NOP      -0.544200
     14 P           -1.5760     1.1890     5.6890 p5         1 NOP       1.403900
     15 O1P         -0.6680     0.2720     6.3900 o          1 NOP      -0.968500
     16 O2P         -1.3400     2.6020     5.9540 o          1 NOP      -0.968500
     17 O3P         -2.9930     0.7950     5.6890 o          1 NOP      -0.968500
     18 H2A1         2.8290    -0.8150    -1.2970 hc         1 NOP       0.041033
     19 H2A2         1.3910    -0.1880    -2.1160 hc         1 NOP       0.041033
     20 H2A3         2.5920     0.9310    -1.4560 hc         1 NOP       0.041033
     21 HO3          3.7390     0.8200     1.1440 ho         1 NOP       0.429000
     22 H4A          1.6660    -0.3480     4.5420 h4         1 NOP       0.075200
     23 H6          -1.7680     0.0420     1.1170 h4         1 NOP       0.199000
     24 H5A1        -0.5050    -0.7650     4.2160 h1         1 NOP       0.031700
     25 H5A2        -1.9050    -0.3700     3.2320 h1         1 NOP       0.031700
@<TRIPOS>BOND
     1     1     2 1
     2     1     3 1
     3     1    11 2
     4     3     4 1
     5     3     5 ar
     6     4    18 1
     7     4    19 1
     8     4    20 1
     9     5     6 1
    10     5     7 ar
    11     6    21 1
    12     7     8 1
    13     7    10 ar
    14     8     9 2
    15     8    22 1
    16    10    11 ar
    17    10    12 1
    18    11    23 1
    19    12    13 1
    20    12    24 1
    21    12    25 1
    22    13    14 1
    23    14    15 1
    24    14    16 1
    25    14    17 1
@<TRIPOS>SUBSTRUCTURE
     1 NOP         1 TEMP              0 ****  ****    0 ROOT
