@<TRIPOS>MOLECULE
molecule
   51    52     1     0     0
SMALL
bcc


@<TRIPOS>ATOM
      1 C2           0.0000     0.0000     0.0000 ca         1 NOQ      -0.215000
      2 C3           1.3870     0.0000     0.0000 ca         1 NOQ       0.173100
      3 C4           2.0790     0.0000     1.2020 ca         1 NOQ      -0.215000
      4 C5           1.3850     0.0120     2.3960 ca         1 NOQ       0.005500
      5 C6          -0.6890     0.0060     1.1980 ca         1 NOQ       0.005500
      6 C7           0.0030     0.0120     2.3940 ca         1 NOQ      -0.338500
      7 O1           2.0670    -0.0050    -1.1770 os         1 NOQ      -0.289900
      8 C11         -4.1460    -5.7630     3.6240 c3         1 NOQ       0.095000
      9 N10         -3.3380    -5.2310     4.7230 ns         1 NOQ      -0.597900
     10 C18         -2.9630    -3.9360     4.7200 c          1 NOQ       0.671100
     11 O19         -3.2970    -3.2110     3.8050 o          1 NOQ      -0.582100
     12 C12         -2.1310    -3.3890     5.8510 c3         1 NOQ      -0.124700
     13 C16         -2.8930    -3.5500     7.1680 c3         1 NOQ      -0.075400
     14 C17         -2.0480    -2.9950     8.3160 c3         1 NOQ      -0.080400
     15 C15         -1.7640    -1.5120     8.0690 c3         1 NOQ      -0.078400
     16 C14         -1.0030    -1.3500     6.7520 c3         1 NOQ      -0.101400
     17 C13         -1.8480    -1.9060     5.6040 c3         1 NOQ      -0.030700
     18 C30         -1.0870    -1.7440     4.2860 c3         1 NOQ      -0.224600
     19 S8          -0.8790     0.0200     3.9200 sy         1 NOQ       1.204300
     20 O9           0.0390     0.6360     4.8120 o          1 NOQ      -0.613800
     21 O41         -2.1140     0.6300     3.5670 o          1 NOQ      -0.613800
     22 C44          3.4580    -0.0040    -0.8500 c3         1 NOQ       0.100700
     23 C20         -4.4300    -7.2460     3.8700 c3         1 NOQ       0.071800
     24 N21         -5.2410    -7.7800     2.7670 nz         1 NOQ      -0.806600
     25 H2          -0.5420    -0.0020    -0.9380 ha         1 NOQ       0.151000
     26 H4           3.1620     0.0000     1.2040 ha         1 NOQ       0.151000
     27 H5           1.9240     0.0150     3.3360 ha         1 NOQ       0.152500
     28 H6          -1.7730     0.0060     1.1990 ha         1 NOQ       0.152500
     29 H111        -3.6070    -5.6490     2.6910 h1         1 NOQ       0.071700
     30 H112        -5.0820    -5.2200     3.5690 h1         1 NOQ       0.071700
     31 HN10        -3.0410    -5.8350     5.4630 hn         1 NOQ       0.326500
     32 H12         -1.1940    -3.9290     5.9090 hc         1 NOQ       0.076700
     33 H161        -3.0910    -4.6010     7.3430 hc         1 NOQ       0.042700
     34 H162        -3.8280    -3.0050     7.1120 hc         1 NOQ       0.042700
     35 H171        -2.5880    -3.1070     9.2480 hc         1 NOQ       0.050700
     36 H172        -1.1110    -3.5360     8.3680 hc         1 NOQ       0.050700
     37 H151        -2.7010    -0.9710     8.0120 hc         1 NOQ       0.057200
     38 H152        -1.1640    -1.1210     8.8820 hc         1 NOQ       0.057200
     39 H141        -0.0680    -1.8940     6.8070 hc         1 NOQ       0.068200
     40 H142        -0.8060    -0.2990     6.5770 hc         1 NOQ       0.068200
     41 H13         -2.7850    -1.3660     5.5530 hc         1 NOQ       0.080700
     42 H301        -1.6450    -2.2160     3.4860 h1         1 NOQ       0.108700
     43 H302        -0.1130    -2.2120     4.3720 h1         1 NOQ       0.108700
     44 H441         3.6930    -0.8870    -0.2680 h1         1 NOQ       0.049700
     45 H442         4.0430    -0.0060    -1.7620 h1         1 NOQ       0.049700
     46 H443         3.6930     0.8820    -0.2720 h1         1 NOQ       0.049700
     47 H201        -3.4940    -7.7890     3.9250 hx         1 NOQ       0.115700
     48 H202        -4.9690    -7.3610     4.8030 hx         1 NOQ       0.115700
     49 H211        -5.4270    -8.7500     2.9290 hn         1 NOQ       0.462467
     50 H212        -6.1060    -7.2780     2.7170 hn         1 NOQ       0.462467
     51 H213        -4.7430    -7.6740     1.9060 hn         1 NOQ       0.462467
@<TRIPOS>BOND
     1     1     2 ar
     2     1     5 ar
     3     1    25 1
     4     2     3 ar
     5     2     7 1
     6     3     4 ar
     7     3    26 1
     8     4     6 ar
     9     4    27 1
    10     5     6 ar
    11     5    28 1
    12     6    19 1
    13     7    22 1
    14     8     9 1
    15     8    23 1
    16     8    29 1
    17     8    30 1
    18     9    10 1
    19     9    31 1
    20    10    11 2
    21    10    12 1
    22    12    13 1
    23    12    17 1
    24    12    32 1
    25    13    14 1
    26    13    33 1
    27    13    34 1
    28    14    15 1
    29    14    35 1
    30    14    36 1
    31    15    16 1
    32    15    37 1
    33    15    38 1
    34    16    17 1
    35    16    39 1
    36    16    40 1
    37    17    18 1
    38    17    41 1
    39    18    19 1
    40    18    42 1
    41    18    43 1
    42    19    20 2
    43    19    21 2
    44    22    44 1
    45    22    45 1
    46    22    46 1
    47    23    24 1
    48    23    47 1
    49    23    48 1
    50    24    49 1
    51    24    50 1
    52    51    24 1
@<TRIPOS>SUBSTRUCTURE
     1 NOQ         1 TEMP              0 ****  ****    0 ROOT
