@<TRIPOS>MOLECULE
molecule
   31    33     1     0     0
SMALL
bcc


@<TRIPOS>ATOM
      1 N9           0.0000     0.0000     0.0000 na         1 NOS      -0.181900
      2 C4           1.3670     0.0000     0.0000 cc         1 NOS       0.081800
      3 N3           2.3040     0.0000     0.9600 nd         1 NOS      -0.636100
      4 C2           3.5740    -0.0000     0.6660 cc         1 NOS       0.506800
      5 N1           4.0180     0.0010    -0.6160 ns         1 NOS      -0.471400
      6 C6           3.1400     0.0030    -1.6450 c          1 NOS       0.622000
      7 O6           3.5300     0.0050    -2.8000 o          1 NOS      -0.609500
      8 C5           1.7560     0.0020    -1.3430 cd         1 NOS       0.220800
      9 N7           0.6260     0.0020    -2.0880 nd         1 NOS      -0.631000
     10 C8          -0.4100     0.0020    -1.3000 cc         1 NOS       0.432400
     11 C4'         -3.0820     0.0340     1.8560 c3         1 NOS       0.125100
     12 O4'         -2.1950    -0.4530     0.8340 os         1 NOS      -0.396600
     13 C1'         -0.8670    -0.0070     1.1810 c3         1 NOS       0.255800
     14 C2'         -1.0940     1.4350     1.7000 c3         1 NOS       0.095100
     15 O2'         -0.0480     1.8270     2.5910 oh         1 NOS      -0.557800
     16 C3'         -2.4420     1.3010     2.4560 c3         1 NOS       0.085100
     17 O3'         -2.2160     1.1360     3.8570 oh         1 NOS      -0.568800
     18 H1           4.2980    -0.0010     1.4720 h5         1 NOS       0.062800
     19 H2           5.0010     0.0010    -0.8010 hn         1 NOS       0.341500
     20 H3          -1.4430     0.0030    -1.6280 h5         1 NOS       0.085100
     21 H6          -5.9860    -0.6470     0.6140 ho         1 NOS       0.406000
     22 H8          -0.4500    -0.6300     1.9630 h2         1 NOS       0.114700
     23 H9          -1.1860     2.1300     0.8740 h1         1 NOS       0.060700
     24 H10          0.0850     2.7580     2.5290 ho         1 NOS       0.406000
     25 H11         -3.0680     2.1650     2.2660 h1         1 NOS       0.046700
     26 H12         -2.7290     1.7670     4.3340 ho         1 NOS       0.406000
     27 H7          -3.1990    -0.7170     2.6280 h1         1 NOS       0.090700
     28 C5'         -4.4420     0.3770     1.2440 c3         1 NOS       0.141400
     29 H4          -4.3010     1.0530     0.4090 h1         1 NOS       0.029700
     30 O5'         -5.0750    -0.8200     0.7880 oh         1 NOS      -0.591800
     31 H5          -5.0640     0.8530     1.9920 h1         1 NOS       0.029700
@<TRIPOS>BOND
     1     5     4 1
     2     5     6 1
     3     4     3 2
     4     7     6 2
     5     6     8 1
     6     3     2 1
     7    15    14 1
     8     8     2 2
     9     8     9 1
    10     2     1 1
    11     9    10 2
    12     1    10 1
    13     1    13 1
    14    13    14 1
    15    13    12 1
    16    14    16 1
    17    12    11 1
    18    16    17 1
    19    16    11 1
    20    11    28 1
    21    28    30 1
    22     4    18 1
    23     5    19 1
    24    10    20 1
    25    28    29 1
    26    28    31 1
    27    30    21 1
    28    11    27 1
    29    13    22 1
    30    14    23 1
    31    15    24 1
    32    16    25 1
    33    17    26 1
@<TRIPOS>SUBSTRUCTURE
     1 NOS         1 TEMP              0 ****  ****    0 ROOT
