@<TRIPOS>MOLECULE
NOV
   81    84     1     0     0
SMALL
bcc


@<TRIPOS>ATOM
      1 C1           0.0000     0.0000     0.0000 c3         1 NOV       0.239700
      2 O1           1.4280     0.0000     0.0000 os         1 NOV      -0.368600
      3 N1           2.8880     2.5570     5.1710 nz         1 NOV       0.253600
      4 C12          2.4270     2.4940     3.9060 c          1 NOV       0.429100
      5 O4           1.7240     3.3830     3.4700 o          1 NOV      -0.430000
      6 O5           2.7470     1.4440     3.1250 os         1 NOV      -0.369900
      7 C27          2.0100     0.0000     1.3050 c3         1 NOV       0.144100
      8 C28          2.2190     1.4430     1.7730 c3         1 NOV       0.156100
      9 C29          3.2110     2.1350     0.8340 c3         1 NOV       0.138100
     10 O6           3.4690     3.4600     1.3030 oh         1 NOV      -0.603800
     11 C30          4.5180     1.3380     0.8090 c3         1 NOV       0.366900
     12 O7           4.2490    -0.0040     0.3960 os         1 NOV      -0.383600
     13 C31          3.3630    -0.7150     1.2630 c3         1 NOV       0.163800
     14 C23          3.1720    -2.1400     0.7390 c3         1 NOV      -0.021100
     15 C26          3.9590    -0.7650     2.6710 c3         1 NOV      -0.021100
     16 O8           5.4300     1.9460    -0.1080 os         1 NOV      -0.276900
     17 C3           6.6810     1.4210    -0.1720 ca         1 NOV       0.185100
     18 C4           7.6100     1.9660    -1.0420 ca         1 NOV      -0.147300
     19 C2           7.2350     3.1380    -1.9130 c3         1 NOV       0.073200
     20 C5           8.8890     1.4320    -1.1090 ca         1 NOV       0.224100
     21 C9           9.2230     0.3390    -0.2890 ca         1 NOV      -0.208800
     22 C10          8.2730    -0.1990     0.5830 ca         1 NOV      -0.002000
     23 C11          7.0200     0.3420     0.6420 ca         1 NOV      -0.238000
     24 O10          9.8080     1.9500    -1.9510 os         1 NOV      -0.270200
     25 C6          11.0510     1.4520    -2.0370 c          1 NOV       0.791800
     26 O11         11.8410     1.9600    -2.8160 o          1 NOV      -0.581500
     27 C7          11.4680     0.3610    -1.2530 cc         1 NOV      -0.242600
     28 C8          10.5790    -0.2200    -0.3680 cd         1 NOV       0.205900
     29 O9          10.9470    -1.2710     0.4020 oh         1 NOV      -0.493100
     30 N2          12.7780    -0.1350    -1.3670 ns         1 NOV      -0.043100
     31 C13         13.2190    -0.6050    -2.5510 c          1 NOV       0.596700
     32 O2          12.5140    -0.5220    -3.5380 o          1 NOV      -0.622100
     33 C14         14.5570    -1.2200    -2.6470 ca         1 NOV      -0.187600
     34 C15         15.0170    -1.7080    -3.8730 ca         1 NOV      -0.002000
     35 C16         16.2650    -2.2810    -3.9600 ca         1 NOV      -0.117300
     36 C17         17.0690    -2.3750    -2.8300 ca         1 NOV       0.166100
     37 O3          18.2990    -2.9410    -2.9190 oh         1 NOV      -0.482100
     38 C18         16.6160    -1.8890    -1.6080 ca         1 NOV      -0.180000
     39 C19         15.3700    -1.3100    -1.5150 ca         1 NOV      -0.061000
     40 C20         16.7610    -2.8090    -5.2820 c3         1 NOV       0.073100
     41 C21         17.6930    -1.8020    -5.9060 c2         1 NOV      -0.170200
     42 C22         17.3810    -1.2410    -7.0490 c2         1 NOV      -0.141400
     43 C24         16.0270    -1.4880    -7.6650 c3         1 NOV       0.057100
     44 C25         18.3740    -0.3490    -7.7470 c3         1 NOV       0.057100
     45 H11A        -0.3610    -0.5480     0.8620 h1         1 NOV       0.000033
     46 H12         -0.3610    -0.4730    -0.9050 h1         1 NOV       0.000033
     47 H13         -0.3610     1.0200     0.0430 h1         1 NOV       0.000033
     48 HN11         3.8760     2.7180     5.1590 hn         1 NOV       0.248800
     49 HN12         2.6960     1.6940     5.6400 hn         1 NOV       0.248800
     50 H27          1.3540    -0.5120     1.9980 h1         1 NOV       0.032700
     51 H28          1.2720     1.9700     1.7490 h1         1 NOV       0.059700
     52 H29          2.7940     2.1740    -0.1650 h1         1 NOV       0.070700
     53 HO6          3.2550     4.0800     0.6260 ho         1 NOV       0.429000
     54 H30          4.9510     1.3270     1.8020 h2         1 NOV       0.006700
     55 H231         2.9010    -2.1050    -0.3100 hc         1 NOV       0.022700
     56 H232         4.0950    -2.6950     0.8560 hc         1 NOV       0.022700
     57 H233         2.3830    -2.6280     1.2990 hc         1 NOV       0.022700
     58 H261         4.7490    -1.5050     2.7020 hc         1 NOV       0.022700
     59 H262         4.3640     0.2070     2.9270 hc         1 NOV       0.022700
     60 H263         3.1860    -1.0320     3.3810 hc         1 NOV       0.022700
     61 H21A         6.4700     2.8340    -2.6170 hc         1 NOV       0.017700
     62 H22          6.8550     3.9420    -1.2930 hc         1 NOV       0.017700
     63 H23          8.1080     3.4810    -2.4540 hc         1 NOV       0.017700
     64 H10          8.5320    -1.0380     1.2180 ha         1 NOV       0.111000
     65 H11          6.2910    -0.0610     1.3330 ha         1 NOV       0.122000
     66 HO9         10.6390    -2.0710     0.0090 ho         1 NOV       0.422000
     67 HN2         13.3970    -0.0970    -0.5820 hn         1 NOV       0.181500
     68 H15         14.3910    -1.6360    -4.7550 ha         1 NOV       0.133000
     69 HO3         18.3800    -3.6200    -2.2700 ho         1 NOV       0.404000
     70 H18         17.2460    -1.9620    -0.7300 ha         1 NOV       0.114000
     71 H19         15.0170    -0.9330    -0.5630 ha         1 NOV       0.097000
     72 H201        17.2900    -3.7410    -5.1230 hc         1 NOV       0.028700
     73 H202        15.9190    -2.9800    -5.9420 hc         1 NOV       0.028700
     74 H21         18.6660    -1.6230    -5.4660 ha         1 NOV       0.116000
     75 H241        15.8680    -2.5550    -7.7700 hc         1 NOV       0.008200
     76 H242        15.9820    -1.0180    -8.6400 hc         1 NOV       0.008200
     77 H243        15.2580    -1.0700    -7.0260 hc         1 NOV       0.008200
     78 H251        19.2150    -0.1620    -7.0910 hc         1 NOV       0.008200
     79 H252        17.8990     0.5900    -8.0020 hc         1 NOV       0.008200
     80 H253        18.7220    -0.8350    -8.6510 hc         1 NOV       0.008200
     81 H131         2.4340     3.3070     5.6540 hn         1 NOV       0.248800
@<TRIPOS>BOND
     1     1     2 1   
     2     1    45 1   
     3     1    46 1   
     4     1    47 1   
     5     2     7 1   
     6     3     4 1   
     7     3    48 1   
     8     3    49 1   
     9     3    81 1   
    10     4     5 2   
    11     4     6 1   
    12     6     8 1   
    13     7     8 1   
    14     7    13 1   
    15     7    50 1   
    16     8     9 1   
    17     8    51 1   
    18     9    10 1   
    19     9    11 1   
    20     9    52 1   
    21    10    53 1   
    22    11    12 1   
    23    11    16 1   
    24    11    54 1   
    25    12    13 1   
    26    13    14 1   
    27    13    15 1   
    28    14    55 1   
    29    14    56 1   
    30    14    57 1   
    31    15    58 1   
    32    15    59 1   
    33    15    60 1   
    34    16    17 1   
    35    17    18 ar  
    36    17    23 ar  
    37    18    19 1   
    38    18    20 ar  
    39    19    61 1   
    40    19    62 1   
    41    19    63 1   
    42    20    21 ar  
    43    20    24 1   
    44    21    22 ar  
    45    21    28 1   
    46    22    23 ar  
    47    22    64 1   
    48    23    65 1   
    49    24    25 1   
    50    25    26 2   
    51    25    27 1   
    52    27    28 2   
    53    27    30 1   
    54    28    29 1   
    55    29    66 1   
    56    30    31 1   
    57    30    67 1   
    58    31    32 2   
    59    31    33 1   
    60    33    34 ar  
    61    33    39 ar  
    62    34    35 ar  
    63    34    68 1   
    64    35    36 ar  
    65    35    40 1   
    66    36    37 1   
    67    36    38 ar  
    68    37    69 1   
    69    38    39 ar  
    70    38    70 1   
    71    39    71 1   
    72    40    41 1   
    73    40    72 1   
    74    40    73 1   
    75    41    42 2   
    76    41    74 1   
    77    42    43 1   
    78    42    44 1   
    79    43    75 1   
    80    43    76 1   
    81    43    77 1   
    82    44    78 1   
    83    44    79 1   
    84    44    80 1   
@<TRIPOS>SUBSTRUCTURE
     1 NOV         1 TEMP              0 ****  ****    0 ROOT
