@<TRIPOS>MOLECULE
molecule
   81    84     1     0     0
SMALL
bcc


@<TRIPOS>ATOM
      1 C1           0.0000     0.0000     0.0000 c3         1 NOV       0.111700
      2 O1           1.4280     0.0000     0.0000 os         1 NOV      -0.382600
      3 N1           2.8880     2.5570     5.1710 nz         1 NOV      -0.651400
      4 C12          2.4270     2.4940     3.9060 c          1 NOV       0.575100
      5 O4           1.7240     3.3830     3.4700 o          1 NOV      -0.412000
      6 O5           2.7470     1.4440     3.1250 os         1 NOV      -0.388900
      7 C27          2.0100     0.0000     1.3050 c3         1 NOV       0.122100
      8 C28          2.2190     1.4430     1.7730 c3         1 NOV       0.120100
      9 C29          3.2110     2.1350     0.8340 c3         1 NOV       0.111100
     10 O6           3.4690     3.4600     1.3030 oh         1 NOV      -0.617800
     11 C30          4.5180     1.3380     0.8090 c3         1 NOV       0.338900
     12 O7           4.2490    -0.0040     0.3960 os         1 NOV      -0.399600
     13 C31          3.3630    -0.7150     1.2630 c3         1 NOV       0.162800
     14 C23          3.1720    -2.1400     0.7390 c3         1 NOV      -0.101100
     15 C26          3.9590    -0.7650     2.6710 c3         1 NOV      -0.101100
     16 O8           5.4300     1.9460    -0.1080 os         1 NOV      -0.295900
     17 C3           6.6810     1.4210    -0.1720 ca         1 NOV       0.171100
     18 C4           7.6100     1.9660    -1.0420 ca         1 NOV      -0.118300
     19 C2           7.2350     3.1380    -1.9130 c3         1 NOV      -0.034800
     20 C5           8.8890     1.4320    -1.1090 ca         1 NOV       0.206100
     21 C9           9.2230     0.3390    -0.2890 ca         1 NOV      -0.190800
     22 C10          8.2730    -0.1990     0.5830 ca         1 NOV      -0.042000
     23 C11          7.0200     0.3420     0.6420 ca         1 NOV      -0.230000
     24 O10          9.8080     1.9500    -1.9510 os         1 NOV      -0.296200
     25 C6          11.0510     1.4520    -2.0370 c          1 NOV       0.740800
     26 O11         11.8410     1.9600    -2.8160 o          1 NOV      -0.529500
     27 C7          11.4680     0.3610    -1.2530 cc         1 NOV      -0.082600
     28 C8          10.5790    -0.2200    -0.3680 cd         1 NOV       0.170900
     29 O9          10.9470    -1.2710     0.4020 oh         1 NOV      -0.495100
     30 N2          12.7780    -0.1350    -1.3670 ns         1 NOV      -0.478100
     31 C13         13.2190    -0.6050    -2.5510 c          1 NOV       0.690700
     32 O2          12.5140    -0.5220    -3.5380 o          1 NOV      -0.574100
     33 C14         14.5570    -1.2200    -2.6470 ca         1 NOV      -0.172600
     34 C15         15.0170    -1.7080    -3.8730 ca         1 NOV      -0.046000
     35 C16         16.2650    -2.2810    -3.9600 ca         1 NOV      -0.160300
     36 C17         17.0690    -2.3750    -2.8300 ca         1 NOV       0.184100
     37 O3          18.2990    -2.9410    -2.9190 oh         1 NOV      -0.474100
     38 C18         16.6160    -1.8890    -1.6080 ca         1 NOV      -0.209000
     39 C19         15.3700    -1.3100    -1.5150 ca         1 NOV      -0.072000
     40 C20         16.7610    -2.8090    -5.2820 c3         1 NOV      -0.035900
     41 C21         17.6930    -1.8020    -5.9060 c2         1 NOV      -0.480200
     42 C22         17.3810    -1.2410    -7.0490 c2         1 NOV       0.028600
     43 C24         16.0270    -1.4880    -7.6650 c3         1 NOV      -0.094400
     44 C25         18.3740    -0.3490    -7.7470 c3         1 NOV      -0.094400
     45 H11A        -0.3610    -0.8710    -0.5330 h1         1 NOV       0.046700
     46 H12         -0.3610    -0.0260     1.0210 h1         1 NOV       0.046700
     47 H13         -0.3610     0.8970    -0.4880 h1         1 NOV       0.046700
     48 HN11         2.6820     1.7000     5.6450 hn         1 NOV       0.490467
     49 HN12         2.4450     3.3170     5.6500 hn         1 NOV       0.490467
     50 H27          1.3540    -0.5120     1.9980 h1         1 NOV       0.062700
     51 H28          1.2720     1.9700     1.7490 h1         1 NOV       0.097700
     52 H29          2.7940     2.1740    -0.1650 h1         1 NOV       0.114700
     53 HO6          3.2980     4.0770     0.6110 ho         1 NOV       0.442000
     54 H30          4.9510     1.3270     1.8020 h2         1 NOV       0.037700
     55 H231         2.9310    -2.1070    -0.3170 hc         1 NOV       0.055367
     56 H232         4.0850    -2.7030     0.8830 hc         1 NOV       0.055367
     57 H233         2.3630    -2.6180     1.2790 hc         1 NOV       0.055367
     58 H261         4.3550     0.2100     2.9300 hc         1 NOV       0.055367
     59 H262         3.1880    -1.0420     3.3800 hc         1 NOV       0.055367
     60 H263         4.7560    -1.4980     2.7000 hc         1 NOV       0.055367
     61 H21A         8.0460     3.8560    -1.9220 hc         1 NOV       0.055700
     62 H22          7.0470     2.7920    -2.9220 hc         1 NOV       0.055700
     63 H23          6.3410     3.6080    -1.5200 hc         1 NOV       0.055700
     64 H10          8.5320    -1.0380     1.2180 ha         1 NOV       0.146000
     65 H11          6.2880    -0.0660     1.3280 ha         1 NOV       0.136000
     66 HO9         11.1920    -0.9630     1.2580 ho         1 NOV       0.425000
     67 HN2         13.3970    -0.0970    -0.5820 hn         1 NOV       0.327500
     68 H15         14.3910    -1.6360    -4.7550 ha         1 NOV       0.163000
     69 HO3         18.4240    -3.5360    -2.1980 ho         1 NOV       0.422000
     70 H18         17.2460    -1.9620    -0.7300 ha         1 NOV       0.142000
     71 H19         15.0170    -0.9330    -0.5630 ha         1 NOV       0.122000
     72 H201        17.2900    -3.7410    -5.1230 hc         1 NOV       0.067200
     73 H202        15.9190    -2.9800    -5.9420 hc         1 NOV       0.067200
     74 H21         16.8470    -1.4920    -5.3050 ha         1 NOV       0.326000
     75 H241        15.8480    -2.5550    -7.7260 hc         1 NOV       0.052700
     76 H242        15.9990    -1.0600    -8.6590 hc         1 NOV       0.052700
     77 H243        15.2620    -1.0290    -7.0510 hc         1 NOV       0.052700
     78 H251        17.8940     0.5830    -8.0190 hc         1 NOV       0.052700
     79 H252        19.2060    -0.1470    -7.0840 hc         1 NOV       0.052700
     80 H253        18.7360    -0.8430    -8.6410 hc         1 NOV       0.052700
     81 H131         3.8780     2.7020     5.1590 hn         1 NOV       0.490467
@<TRIPOS>BOND
     1     1     2 1
     2     1    45 1
     3     1    46 1
     4     1    47 1
     5     2     7 1
     6     3     4 1
     7     3    48 1
     8     3    49 1
     9     4     5 2
    10     4     6 1
    11     6     8 1
    12     7     8 1
    13     7    13 1
    14     7    50 1
    15     8     9 1
    16     8    51 1
    17     9    10 1
    18     9    11 1
    19     9    52 1
    20    10    53 1
    21    11    12 1
    22    11    16 1
    23    11    54 1
    24    12    13 1
    25    13    14 1
    26    13    15 1
    27    14    55 1
    28    14    56 1
    29    14    57 1
    30    15    58 1
    31    15    59 1
    32    15    60 1
    33    16    17 1
    34    17    18 ar
    35    17    23 ar
    36    18    19 1
    37    18    20 ar
    38    19    61 1
    39    19    62 1
    40    19    63 1
    41    20    21 ar
    42    20    24 1
    43    21    22 ar
    44    21    28 1
    45    22    23 ar
    46    22    64 1
    47    23    65 1
    48    24    25 1
    49    25    26 2
    50    25    27 1
    51    27    28 2
    52    27    30 1
    53    28    29 1
    54    29    66 1
    55    30    31 1
    56    30    67 1
    57    31    32 2
    58    31    33 1
    59    33    34 ar
    60    33    39 ar
    61    34    35 ar
    62    34    68 1
    63    35    36 ar
    64    35    40 1
    65    36    37 1
    66    36    38 ar
    67    37    69 1
    68    38    39 ar
    69    38    70 1
    70    39    71 1
    71    40    41 1
    72    40    72 1
    73    40    73 1
    74    41    42 2
    75    41    74 1
    76    42    43 1
    77    42    44 1
    78    43    75 1
    79    43    76 1
    80    43    77 1
    81    44    78 1
    82    44    79 1
    83    44    80 1
    84    81     3 1
@<TRIPOS>SUBSTRUCTURE
     1 NOV         1 TEMP              0 ****  ****    0 ROOT
