@<TRIPOS>MOLECULE
molecule
   57    58     1     0     0
SMALL
bcc


@<TRIPOS>ATOM
      1 O18          0.0000     0.0000     0.0000 o          1 NOW      -0.621100
      2 C17          1.2160     0.0000     0.0000 c          1 NOW       0.718700
      3 C19          1.9530     0.0000     1.2740 cc         1 NOW      -0.196900
      4 N23          1.4210     0.1050     2.5280 na         1 NOW       0.178400
      5 C24         -0.0060     0.2370     2.8320 c3         1 NOW       0.056600
      6 N22          2.3630     0.0690     3.4000 nc         1 NOW      -0.512800
      7 C21          3.5300    -0.0560     2.8220 cd         1 NOW       0.313600
      8 C25          4.8630    -0.1330     3.5220 c3         1 NOW      -0.079300
      9 C28          4.6430    -0.4190     5.0090 c3         1 NOW      -0.079100
     10 C27          5.6980    -1.2580     2.9060 c3         1 NOW      -0.079100
     11 C26          5.6020     1.1970     3.3620 c3         1 NOW      -0.079100
     12 C20          3.3220    -0.1100     1.4420 cd         1 NOW      -0.275300
     13 N16          1.8900    -0.0070    -1.1670 ns         1 NOW      -0.547900
     14 C9           1.1620     0.0990    -2.4340 c3         1 NOW       0.054700
     15 C10          0.6960    -1.2700    -2.8610 c          1 NOW       0.643100
     16 N12         -0.0000    -1.4180    -4.0060 ns         1 NOW      -0.588900
     17 C13         -0.4530    -2.7470    -4.4210 c3         1 NOW       0.065700
     18 C14         -1.2030    -2.6400    -5.7230 c2         1 NOW       0.414200
     19 N15         -0.8420    -3.3430    -6.7300 n2         1 NOW      -0.774100
     20 O11          0.9480    -2.2370    -2.1750 o          1 NOW      -0.585100
     21 C8           2.0850     0.6810    -3.5060 c3         1 NOW      -0.043100
     22 C5           2.4510     2.0950    -3.1380 ca         1 NOW      -0.086300
     23 C3           3.5730     2.3410    -2.3690 ca         1 NOW      -0.124000
     24 C1           3.9100     3.6380    -2.0320 ca         1 NOW      -0.117000
     25 C6           1.6700     3.1490    -3.5760 ca         1 NOW      -0.124000
     26 C4           2.0070     4.4460    -3.2390 ca         1 NOW      -0.076300
     27 C7           1.1540     5.5940    -3.7160 c3         1 NOW      -0.048800
     28 C2           3.1250     4.6910    -2.4650 ca         1 NOW      -0.124000
     29 H24         -0.1440     0.2900     3.9050 h1         1 NOW       0.067033
     30 H24A        -0.3910     1.1400     2.3740 h1         1 NOW       0.067033
     31 H24B        -0.5390    -0.6210     2.4410 h1         1 NOW       0.067033
     32 H28          4.0940    -1.3460     5.1210 hc         1 NOW       0.037922
     33 H28A         5.6010    -0.5050     5.5060 hc         1 NOW       0.037922
     34 H28B         4.0770     0.3920     5.4530 hc         1 NOW       0.037922
     35 H27          5.0920    -2.1520     2.8190 hc         1 NOW       0.037922
     36 H27A         6.0410    -0.9570     1.9230 hc         1 NOW       0.037922
     37 H27B         6.5530    -1.4620     3.5400 hc         1 NOW       0.037922
     38 H26          4.9390     2.0120     3.6240 hc         1 NOW       0.037922
     39 H26A         6.4670     1.2100     4.0140 hc         1 NOW       0.037922
     40 H26B         5.9230     1.3100     2.3330 hc         1 NOW       0.037922
     41 H20          4.0730    -0.2120     0.6680 ha         1 NOW       0.154000
     42 HN16         2.8830    -0.1310    -1.1710 hn         1 NOW       0.326500
     43 H9           0.3040     0.7480    -2.3050 h1         1 NOW       0.098700
     44 HN12        -0.2330    -0.6160    -4.5570 hn         1 NOW       0.310500
     45 H13          0.4040    -3.3970    -4.5510 h1         1 NOW       0.075700
     46 H13A        -1.1070    -3.1600    -3.6610 h1         1 NOW       0.075700
     47 H14         -2.0480    -1.9670    -5.8080 h4         1 NOW      -0.041200
     48 HN15        -1.3400    -3.2710    -7.5950 hn         1 NOW       0.400400
     49 H8           2.9840     0.0800    -3.5740 hc         1 NOW       0.060700
     50 H8A          1.5750     0.6770    -4.4630 hc         1 NOW       0.060700
     51 H3           4.1880     1.5160    -2.0300 ha         1 NOW       0.125000
     52 H1           4.7870     3.8300    -1.4270 ha         1 NOW       0.133000
     53 H6           0.8080     2.9590    -4.2040 ha         1 NOW       0.127000
     54 H7           0.1280     5.4340    -3.4080 hc         1 NOW       0.044700
     55 H7A          1.5200     6.5190    -3.2870 hc         1 NOW       0.044700
     56 H7B          1.2010     5.6540    -4.7970 hc         1 NOW       0.044700
     57 H2           3.3890     5.7080    -2.2000 ha         1 NOW       0.133000
@<TRIPOS>BOND
     1     2     1 2
     2    13     2 1
     3     3     2 1
     4    12     3 2
     5     3     4 1
     6     6     4 1
     7     4     5 1
     8     5    29 1
     9     5    30 1
    10     5    31 1
    11     7     6 2
    12     8     7 1
    13     7    12 1
    14     9     8 1
    15    10     8 1
    16     8    11 1
    17     9    32 1
    18     9    33 1
    19     9    34 1
    20    10    35 1
    21    10    36 1
    22    10    37 1
    23    11    38 1
    24    11    39 1
    25    11    40 1
    26    12    41 1
    27    13    14 1
    28    13    42 1
    29    15    14 1
    30    21    14 1
    31    14    43 1
    32    20    15 2
    33    15    16 1
    34    17    16 1
    35    16    44 1
    36    18    17 1
    37    17    45 1
    38    17    46 1
    39    19    18 2
    40    18    47 1
    41    19    48 1
    42    21    22 1
    43    21    49 1
    44    21    50 1
    45    25    22 ar
    46    22    23 ar
    47    23    24 ar
    48    23    51 1
    49    28    24 ar
    50    24    52 1
    51    25    26 ar
    52    25    53 1
    53    27    26 1
    54    26    28 ar
    55    27    54 1
    56    27    55 1
    57    27    56 1
    58    28    57 1
@<TRIPOS>SUBSTRUCTURE
     1 NOW         1 TEMP              0 ****  ****    0 ROOT
