@<TRIPOS>MOLECULE
NOW
   57    58     1     0     0
SMALL
bcc


@<TRIPOS>ATOM
      1 O18          0.0000     0.0000     0.0000 o          1 NOW      -0.675100
      2 C17          1.2160     0.0000     0.0000 c          1 NOW       0.651700
      3 C19          1.9530     0.0000     1.2740 cc         1 NOW      -0.391900
      4 N23          1.4210     0.1050     2.5280 na         1 NOW       0.664400
      5 C24         -0.0060     0.2370     2.8320 c3         1 NOW      -0.017400
      6 N22          2.3630     0.0690     3.4000 nc         1 NOW      -0.640800
      7 C21          3.5300    -0.0560     2.8220 cd         1 NOW       0.312600
      8 C25          4.8630    -0.1330     3.5220 c3         1 NOW      -0.073300
      9 C28          4.6430    -0.4190     5.0090 c3         1 NOW       0.007900
     10 C27          5.6980    -1.2580     2.9060 c3         1 NOW       0.007900
     11 C26          5.6020     1.1970     3.3620 c3         1 NOW       0.007900
     12 C20          3.3220    -0.1100     1.4420 cd         1 NOW      -0.255300
     13 N16          1.8900    -0.0070    -1.1670 ns         1 NOW      -0.145900
     14 C9           1.1620     0.0990    -2.4340 c3         1 NOW      -0.049300
     15 C10          0.6960    -1.2700    -2.8610 c          1 NOW       0.559100
     16 N12         -0.0000    -1.4180    -4.0060 ns         1 NOW      -0.192900
     17 C13         -0.4530    -2.7470    -4.4210 c3         1 NOW      -0.039300
     18 C14         -1.2030    -2.6400    -5.7230 c2         1 NOW       0.372200
     19 N15         -0.8420    -3.3430    -6.7300 n2         1 NOW      -0.615100
     20 O11          0.9480    -2.2370    -2.1750 o          1 NOW      -0.631100
     21 C8           2.0850     0.6810    -3.5060 c3         1 NOW       0.025900
     22 C5           2.4510     2.0950    -3.1380 ca         1 NOW      -0.099300
     23 C3           3.5730     2.3410    -2.3690 ca         1 NOW      -0.105000
     24 C1           3.9100     3.6380    -2.0320 ca         1 NOW      -0.088000
     25 C6           1.6700     3.1490    -3.5760 ca         1 NOW      -0.095000
     26 C4           2.0070     4.4460    -3.2390 ca         1 NOW      -0.081300
     27 C7           1.1540     5.5940    -3.7160 c3         1 NOW       0.063200
     28 C2           3.1250     4.6910    -2.4650 ca         1 NOW      -0.097000
     29 H24         -0.5380    -0.6260     2.4500 h1         1 NOW       0.036700
     30 H24A        -0.3930     1.1350     2.3650 h1         1 NOW       0.036700
     31 H24B        -0.1430     0.3000     3.9050 h1         1 NOW       0.036700
     32 H28          4.0810     0.3930     5.4540 hc         1 NOW       0.006144
     33 H28A         4.0900    -1.3440     5.1210 hc         1 NOW       0.006144
     34 H28B         5.6010    -0.5090     5.5060 hc         1 NOW       0.006144
     35 H27          5.0920    -2.1520     2.8190 hc         1 NOW       0.006144
     36 H27A         6.5530    -1.4610     3.5390 hc         1 NOW       0.006144
     37 H27B         6.0400    -0.9570     1.9230 hc         1 NOW       0.006144
     38 H26          6.4770     1.2020     3.9990 hc         1 NOW       0.006144
     39 H26A         4.9450     2.0110     3.6430 hc         1 NOW       0.006144
     40 H26B         5.9060     1.3190     2.3290 hc         1 NOW       0.006144
     41 H20          4.0730    -0.2120     0.6680 ha         1 NOW       0.134000
     42 HN16         2.8830    -0.1310    -1.1710 hn         1 NOW       0.184500
     43 H9           0.3040     0.7480    -2.3050 h1         1 NOW       0.071700
     44 HN12        -0.2340    -0.6160    -4.5560 hn         1 NOW       0.177500
     45 H13          0.4040    -3.3970    -4.5510 h1         1 NOW       0.035700
     46 H13A        -1.1070    -3.1600    -3.6610 h1         1 NOW       0.035700
     47 H14         -2.0480    -1.9670    -5.8080 h4         1 NOW      -0.009200
     48 HN15        -0.0620    -3.9650    -6.6520 hn         1 NOW       0.318400
     49 H8           2.9840     0.0800    -3.5740 hc         1 NOW       0.027700
     50 H8A          1.5750     0.6770    -4.4630 hc         1 NOW       0.027700
     51 H3           4.1880     1.5160    -2.0300 ha         1 NOW       0.103000
     52 H1           4.7870     3.8300    -1.4270 ha         1 NOW       0.105000
     53 H6           0.8090     2.9590    -4.2060 ha         1 NOW       0.106000
     54 H7           1.4450     6.5000    -3.1980 hc         1 NOW       0.009367
     55 H7A          1.2930     5.7280    -4.7820 hc         1 NOW       0.009367
     56 H7B          0.1120     5.3790    -3.5120 hc         1 NOW       0.009367
     57 H2           3.3890     5.7080    -2.2000 ha         1 NOW       0.108000
@<TRIPOS>BOND
     1     1     2 2   
     2     2     3 1   
     3     2    13 1   
     4     3     4 1   
     5     3    12 2   
     6     4     5 1   
     7     4     6 1   
     8     5    29 1   
     9     5    30 1   
    10     5    31 1   
    11     6     7 2   
    12     7     8 1   
    13     7    12 1   
    14     8     9 1   
    15     8    10 1   
    16     8    11 1   
    17     9    32 1   
    18     9    33 1   
    19     9    34 1   
    20    10    35 1   
    21    10    36 1   
    22    10    37 1   
    23    11    38 1   
    24    11    39 1   
    25    11    40 1   
    26    12    41 1   
    27    13    14 1   
    28    13    42 1   
    29    14    15 1   
    30    14    21 1   
    31    14    43 1   
    32    15    16 1   
    33    15    20 2   
    34    16    17 1   
    35    16    44 1   
    36    17    18 1   
    37    17    45 1   
    38    17    46 1   
    39    18    19 2   
    40    18    47 1   
    41    19    48 1   
    42    21    22 1   
    43    21    49 1   
    44    21    50 1   
    45    22    23 ar  
    46    22    25 ar  
    47    23    24 ar  
    48    23    51 1   
    49    24    28 ar  
    50    24    52 1   
    51    25    26 ar  
    52    25    53 1   
    53    26    27 1   
    54    26    28 ar  
    55    27    54 1   
    56    27    55 1   
    57    27    56 1   
    58    28    57 1   
@<TRIPOS>SUBSTRUCTURE
     1 NOW         1 TEMP              0 ****  ****    0 ROOT
