@<TRIPOS>MOLECULE
NOX
   49    50     1     0     0
SMALL
bcc


@<TRIPOS>ATOM
      1 N1           0.0000     0.0000     0.0000 n4         1 NOX       0.359400
      2 C2           1.4680     0.0000     0.0000 c3         1 NOX      -0.007200
      3 C3           1.9810     0.0000     1.4420 c3         1 NOX      -0.023900
      4 C4           1.4700    -1.2530     2.1590 c3         1 NOX      -0.032400
      5 C5          -0.0590    -1.2820     2.0880 c3         1 NOX      -0.023900
      6 C6          -0.4960    -1.2340     0.6220 c3         1 NOX      -0.007200
      7 O7          -0.4860     1.1550     0.7550 o          1 NOX      -0.775000
      8 C8          -0.4880     0.0790    -1.3830 c3         1 NOX      -0.005200
      9 C9           0.1260     1.3020    -2.0710 c3         1 NOX       0.026900
     10 C10         -0.3750     1.3830    -3.4900 ca         1 NOX      -0.130300
     11 C11         -1.5270     2.0910    -3.7750 ca         1 NOX      -0.079500
     12 C12         -1.9890     2.1680    -5.0740 ca         1 NOX      -0.118500
     13 C13         -1.2930     1.5340    -6.0950 ca         1 NOX      -0.060400
     14 C14         -0.1390     0.8190    -5.8050 ca         1 NOX      -0.118500
     15 C15          0.3210     0.7510    -4.5040 ca         1 NOX      -0.079500
     16 N16         -1.7580     1.6100    -7.4120 ns         1 NOX      -0.073100
     17 C17         -2.3150     2.7510    -7.8660 c          1 NOX       0.558100
     18 O18         -2.3210     3.7420    -7.1670 o          1 NOX      -0.608100
     19 C19         -2.9280     2.7950    -9.2420 c3         1 NOX      -0.104400
     20 C20         -3.4840     4.1960    -9.5080 c3         1 NOX      -0.004400
     21 C21         -4.1070     4.2400   -10.9040 c3         1 NOX      -0.138400
     22 C22         -4.6550     5.6200   -11.1660 c          1 NOX       0.980600
     23 O23         -5.2520     5.8940   -12.3360 o          1 NOX      -0.901300
     24 O24         -4.5570     6.4780   -10.3220 o          1 NOX      -0.901300
     25 H21          1.8270    -0.8860    -0.5090 hx         1 NOX       0.044200
     26 H22          1.8270     0.8860    -0.5090 hx         1 NOX       0.044200
     27 H31          3.0640    -0.0030     1.4390 hc         1 NOX       0.039950
     28 H32          1.6170     0.8820     1.9550 hc         1 NOX       0.039950
     29 H41          1.7830    -1.2290     3.1960 hc         1 NOX       0.012200
     30 H42          1.8710    -2.1350     1.6750 hc         1 NOX       0.012200
     31 H51         -0.4610    -0.4240     2.6120 hc         1 NOX       0.039950
     32 H52         -0.4240    -2.1950     2.5430 hc         1 NOX       0.039950
     33 H61         -0.0890    -2.0900     0.0970 hx         1 NOX       0.044200
     34 H62         -1.5780    -1.2530     0.5690 hx         1 NOX       0.044200
     35 H81         -0.2020    -0.8180    -1.9190 hx         1 NOX       0.046200
     36 H82         -1.5670     0.1710    -1.3810 hx         1 NOX       0.046200
     37 H91          1.2060     1.2110    -2.0730 hc         1 NOX       0.041700
     38 H92         -0.1600     2.1990    -1.5350 hc         1 NOX       0.041700
     39 H11         -2.0650     2.5930    -2.9800 ha         1 NOX       0.103500
     40 H12         -2.9300     2.6610    -5.2850 ha         1 NOX       0.121500
     41 H14          0.4290     0.3590    -6.6050 ha         1 NOX       0.121500
     42 H15          1.2410     0.2240    -4.2820 ha         1 NOX       0.103500
     43 HN6         -1.6900     0.8130    -8.0140 hn         1 NOX       0.165500
     44 H191        -2.1720     2.5600    -9.9820 hc         1 NOX       0.019700
     45 H192        -3.7300     2.0700    -9.3040 hc         1 NOX       0.019700
     46 H201        -4.2390     4.4310    -8.7680 hc         1 NOX       0.036700
     47 H202        -2.6810     4.9210    -9.4470 hc         1 NOX       0.036700
     48 H211        -4.9100     3.5160   -10.9650 hc         1 NOX       0.000700
     49 H212        -3.3520     4.0050   -11.6440 hc         1 NOX       0.000700
@<TRIPOS>BOND
     1     1     2 1   
     2     1     6 1   
     3     1     7 1   
     4     1     8 1   
     5     2     3 1   
     6     2    25 1   
     7     2    26 1   
     8     3     4 1   
     9     3    27 1   
    10     3    28 1   
    11     4     5 1   
    12     4    29 1   
    13     4    30 1   
    14     5     6 1   
    15     5    31 1   
    16     5    32 1   
    17     6    33 1   
    18     6    34 1   
    19     8     9 1   
    20     8    35 1   
    21     8    36 1   
    22     9    10 1   
    23     9    37 1   
    24     9    38 1   
    25    10    11 ar  
    26    10    15 ar  
    27    11    12 ar  
    28    11    39 1   
    29    12    13 ar  
    30    12    40 1   
    31    13    14 ar  
    32    13    16 1   
    33    14    15 ar  
    34    14    41 1   
    35    15    42 1   
    36    16    17 1   
    37    16    43 1   
    38    17    18 2   
    39    17    19 1   
    40    19    20 1   
    41    19    44 1   
    42    19    45 1   
    43    20    21 1   
    44    20    46 1   
    45    20    47 1   
    46    21    22 1   
    47    21    48 1   
    48    21    49 1   
    49    22    23 1   
    50    22    24 1   
@<TRIPOS>SUBSTRUCTURE
     1 NOX         1 TEMP              0 ****  ****    0 ROOT
