@<TRIPOS>MOLECULE
molecule
   24    24     1     0     0
SMALL
bcc


@<TRIPOS>ATOM
      1 O4           0.0000     0.0000     0.0000 oh         1 NOY      -0.582800
      2 C4           1.4280     0.0000     0.0000 c3         1 NOY       0.158100
      3 C3           1.8960     0.0000     1.4580 c3         1 NOY       0.129100
      4 O3           1.5720     1.2760     2.0190 oh         1 NOY      -0.612800
      5 C2           3.4070    -0.2240     1.5750 c3         1 NOY       0.370300
      6 N            3.8260    -1.4280     0.8640 n7         1 NOY      -0.839200
      7 C7           3.4740    -1.3680    -0.5530 c3         1 NOY       0.174800
      8 C5           1.9580    -1.2340    -0.7470 c3         1 NOY      -0.076700
      9 C6           1.6210    -1.1830    -2.2400 c3         1 NOY       0.151400
     10 O2           3.7380    -0.3200     2.9620 oh         1 NOY      -0.589800
     11 O6           0.2180    -1.0720    -2.3770 oh         1 NOY      -0.585800
     12 H4          -0.3140     0.8860    -0.0760 ho         1 NOY       0.407000
     13 HA           1.7900     0.8960    -0.4900 h1         1 NOY       0.039700
     14 H3           1.3750    -0.7800     2.0010 h1         1 NOY       0.075700
     15 H5           1.4870    -2.1120    -0.3210 hc         1 NOY       0.088700
     16 HB           1.0420     1.1550     2.7900 ho         1 NOY       0.415000
     17 H            4.8150    -1.5440     0.9580 hn         1 NOY       0.363800
     18 H7C1         3.9650    -0.5130    -1.0030 h1         1 NOY       0.033700
     19 H7C2         3.8140    -2.2750    -1.0400 h1         1 NOY       0.033700
     20 H6C1         2.1010    -0.3240    -2.6930 h1         1 NOY       0.018200
     21 H6C2         1.9640    -2.0900    -2.7230 h1         1 NOY       0.018200
     22 H6C3        -0.0310    -1.2950    -3.2580 ho         1 NOY       0.397000
     23 H12          3.9190     0.6290     1.1470 h2         1 NOY       0.008700
     24 H22          4.5730     0.0910     3.1150 ho         1 NOY       0.403000
@<TRIPOS>BOND
     1     1    12 1
     2     1     2 1
     3     2     8 1
     4     2    13 1
     5     2     3 1
     6     3     5 1
     7     3    14 1
     8     3     4 1
     9     4    16 1
    10     5     6 1
    11     5    10 1
    12     5    23 1
    13     6     7 1
    14     6    17 1
    15     7     8 1
    16     7    18 1
    17     7    19 1
    18     8     9 1
    19     8    15 1
    20     9    20 1
    21     9    21 1
    22     9    11 1
    23    10    24 1
    24    11    22 1
@<TRIPOS>SUBSTRUCTURE
     1 NOY         1 TEMP              0 ****  ****    0 ROOT
