@<TRIPOS>MOLECULE
NOZ
   24    24     1     0     0
SMALL
bcc


@<TRIPOS>ATOM
      1 O4           0.0000     0.0000     0.0000 oh         1 NOZ      -0.588800
      2 C4           1.4290     0.0000     0.0000 c3         1 NOZ       0.182100
      3 C3           1.9410     0.0000     1.4440 c3         1 NOZ       0.169100
      4 O3           1.5140     1.1950     2.1010 oh         1 NOZ      -0.578800
      5 C2           3.4700    -0.0620     1.4380 c3         1 NOZ       0.327300
      6 N            3.9090    -1.2800     0.7440 n7         1 NOZ      -0.597200
      7 C7           3.4700    -1.2790    -0.6570 c3         1 NOZ       0.151800
      8 C5           1.9410    -1.2540    -0.7150 c3         1 NOZ      -0.070700
      9 C6           1.4850    -1.2320    -2.1740 c3         1 NOZ       0.227400
     10 O6           1.8620    -2.4550    -2.8100 oh         1 NOZ      -0.594800
     11 O2           3.9900     1.0840     0.7630 oh         1 NOZ      -0.599800
     12 H4          -0.3140     0.8450    -0.2750 ho         1 NOZ       0.395000
     13 HA           1.7960     0.8810    -0.5120 h1         1 NOZ       0.025700
     14 H3           1.5480    -0.8650     1.9650 h1         1 NOZ       0.026700
     15 H5           1.5470    -2.1340    -0.2210 hc         1 NOZ       0.055700
     16 HB           1.0990     0.9740     2.9190 ho         1 NOZ       0.390000
     17 H            4.9070    -1.3430     0.7810 hn         1 NOZ       0.257800
     18 H7C1         3.8330    -2.1740    -1.1480 h1         1 NOZ       0.023700
     19 H7C2         3.8630    -0.4020    -1.1570 h1         1 NOZ       0.023700
     20 H6C1         1.9520    -0.3990    -2.6860 h1         1 NOZ      -0.008300
     21 H6C2         0.4080    -1.1220    -2.2140 h1         1 NOZ      -0.008300
     22 H6           1.3820    -2.5520    -3.6150 ho         1 NOZ       0.389000
     23 H2           4.7260     1.4250     1.2440 ho         1 NOZ       0.392000
     24 H8           3.8320    -0.0800     2.4580 h2         1 NOZ       0.009700
@<TRIPOS>BOND
     1     1     2 1   
     2     1    12 1   
     3     2     3 1   
     4     2     8 1   
     5     2    13 1   
     6     3     4 1   
     7     3     5 1   
     8     3    14 1   
     9     4    16 1   
    10     5     6 1   
    11     5    11 1   
    12     5    24 1   
    13     6     7 1   
    14     6    17 1   
    15     7     8 1   
    16     7    18 1   
    17     7    19 1   
    18     8     9 1   
    19     8    15 1   
    20     9    10 1   
    21     9    20 1   
    22     9    21 1   
    23    10    22 1   
    24    11    23 1   
@<TRIPOS>SUBSTRUCTURE
     1 NOZ         1 TEMP              0 ****  ****    0 ROOT
