@<TRIPOS>MOLECULE
NP
   39    39     1     0     0
SMALL
bcc


@<TRIPOS>ATOM
      1 C1'          0.0000     0.0000     0.0000 ca         1 NP       -0.103300
      2 C2'          1.3830     0.0000     0.0000 ca         1 NP        0.008000
      3 C3'          2.0740     0.0000     1.1960 ca         1 NP       -0.199000
      4 C4'          1.3800    -0.0010     2.3970 ca         1 NP        0.222100
      5 O4'          2.0580    -0.0010     3.5740 oh         1 NP       -0.463100
      6 C5'         -0.0060    -0.0010     2.3940 ca         1 NP       -0.483200
      7 N5'         -0.7500    -0.0030     3.6740 no         1 NP        1.059200
      8 ON1         -0.1430    -0.0020     4.7300 o          1 NP       -0.453000
      9 ON2         -1.9670    -0.0030     3.6700 o          1 NP       -0.453000
     10 C6'         -0.6930     0.0050     1.1950 ca         1 NP        0.030000
     11 C1          -0.7520     0.0000    -1.3070 c3         1 NP       -0.039100
     12 C2          -1.0020    -1.4210    -1.7420 c          1 NP        0.562100
     13 O2          -0.6090    -2.3420    -1.0600 o          1 NP       -0.651100
     14 N3          -1.6630    -1.6670    -2.8900 ns         1 NP       -0.184900
     15 C4          -1.9070    -3.0460    -3.3140 c3         1 NP        0.041000
     16 C5          -2.6700    -3.0470    -4.6400 c3         1 NP       -0.042400
     17 C6          -2.9240    -4.4880    -5.0840 c3         1 NP       -0.030400
     18 C7          -3.6870    -4.4880    -6.4080 c3         1 NP       -0.016400
     19 C8          -3.9400    -5.9300    -6.8520 c3         1 NP       -0.133400
     20 C9          -4.6930    -5.9300    -8.1570 c          1 NP        0.979600
     21 O3          -4.9950    -4.8840    -8.6810 o          1 NP       -0.905300
     22 O4          -5.0280    -7.0920    -8.7400 o          1 NP       -0.905300
     23 H2'          1.9240     0.0200    -0.9380 ha         1 NP        0.108000
     24 H3'          3.1560     0.0440     1.1960 ha         1 NP        0.119000
     25 HO4'         2.7050    -0.6860     3.5650 ho         1 NP        0.411000
     26 H6'         -1.7760     0.0240     1.1920 ha         1 NP        0.134000
     27 H11         -1.6990     0.5110    -1.1780 hc         1 NP        0.031700
     28 H12         -0.1660     0.5110    -2.0610 hc         1 NP        0.031700
     29 HN3         -1.9880    -0.9060    -3.4530 hn         1 NP        0.172500
     30 H41         -0.9600    -3.5570    -3.4420 h1         1 NP        0.026700
     31 H42         -2.4940    -3.5570    -2.5600 h1         1 NP        0.026700
     32 H51         -2.0830    -2.5350    -5.3940 hc         1 NP        0.015200
     33 H52         -3.6170    -2.5370    -4.5120 hc         1 NP        0.015200
     34 H61         -3.5090    -5.0000    -4.3300 hc         1 NP        0.009200
     35 H62         -1.9770    -4.9980    -5.2130 hc         1 NP        0.009200
     36 H71         -3.1010    -3.9770    -7.1620 hc         1 NP        0.020200
     37 H72         -4.6340    -3.9790    -6.2790 hc         1 NP        0.020200
     38 H81         -2.9930    -6.4400    -6.9810 hc         1 NP        0.005200
     39 H82         -4.5260    -6.4420    -6.0980 hc         1 NP        0.005200
@<TRIPOS>BOND
     1     1     2 ar  
     2     1    10 ar  
     3     1    11 1   
     4     2     3 ar  
     5     2    23 1   
     6     3     4 ar  
     7     3    24 1   
     8     4     5 1   
     9     4     6 ar  
    10     5    25 1   
    11     6     7 1   
    12     6    10 ar  
    13     7     8 1   
    14     7     9 1   
    15    10    26 1   
    16    11    12 1   
    17    11    27 1   
    18    11    28 1   
    19    12    13 2   
    20    12    14 1   
    21    14    15 1   
    22    14    29 1   
    23    15    16 1   
    24    15    30 1   
    25    15    31 1   
    26    16    17 1   
    27    16    32 1   
    28    16    33 1   
    29    17    18 1   
    30    17    34 1   
    31    17    35 1   
    32    18    19 1   
    33    18    36 1   
    34    18    37 1   
    35    19    20 1   
    36    19    38 1   
    37    19    39 1   
    38    20    21 1   
    39    20    22 1   
@<TRIPOS>SUBSTRUCTURE
     1 NP          1 TEMP              0 ****  ****    0 ROOT
