@<TRIPOS>MOLECULE
NP1
   31    31     1     0     0
SMALL
bcc


@<TRIPOS>ATOM
      1 NZ           0.0000     0.0000     0.0000 nz         1 NP1       0.088400
      2 CA           1.4690     0.0000     0.0000 c3         1 NP1      -0.046200
      3 CB           1.9780     0.0000     1.4420 c3         1 NP1      -0.048400
      4 CG           3.5080     0.0000     1.4440 c3         1 NP1       0.188800
      5 NE           3.9960    -0.0010     2.8260 nu         1 NP1      -0.446600
      6 CD           5.3690     0.0000     3.0810 ca         1 NP1       0.125600
      7 CE1          6.2730    -0.1220     2.0330 ca         1 NP1      -0.204000
      8 CE2          5.8340     0.1220     4.3840 ca         1 NP1      -0.503200
      9 NO2          4.8750     0.2520     5.5040 no         1 NP1       1.055200
     10 OC1          5.1030    -0.2930     6.5690 o          1 NP1      -0.450500
     11 OC2          3.8570     0.9060     5.3610 o          1 NP1      -0.450500
     12 CR1          7.6290    -0.1210     2.2900 ca         1 NP1       0.009000
     13 CR2          7.1920     0.1170     4.6340 ca         1 NP1       0.037000
     14 CZ           8.0890     0.0010     3.5890 ca         1 NP1      -0.138300
     15 CM           9.5710    -0.0010     3.8650 c3         1 NP1       0.070200
     16 HNZ1        -0.3340     0.8180     0.4700 hn         1 NP1       0.225800
     17 HNZ2        -0.3340    -0.0010    -0.9440 hn         1 NP1       0.225800
     18 HA1          1.8300     0.8850    -0.5110 hx         1 NP1       0.086700
     19 HA2          1.8300    -0.8850    -0.5110 hx         1 NP1       0.086700
     20 HB1          1.6160     0.8840     1.9530 hc         1 NP1       0.042700
     21 HB2          1.6170    -0.8850     1.9530 hc         1 NP1       0.042700
     22 HG1          3.8700    -0.8840     0.9320 h1         1 NP1       0.023200
     23 HG2          3.8700     0.8860     0.9340 h1         1 NP1       0.023200
     24 HNE          3.3460    -0.0510     3.5850 hn         1 NP1       0.327800
     25 HE1          5.9130    -0.2180     1.0160 ha         1 NP1       0.113000
     26 HR1          8.3340    -0.2150     1.4730 ha         1 NP1       0.113000
     27 HR2          7.5550     0.2120     5.6510 ha         1 NP1       0.131000
     28 HM1          9.8560    -0.9490     4.3030 hc         1 NP1       0.015700
     29 HM2          9.8110     0.8010     4.5530 hc         1 NP1       0.015700
     30 HM3         10.1110     0.1450     2.9370 hc         1 NP1       0.015700
     31 HZ3         -0.3340    -0.8130     0.4780 hn         1 NP1       0.225800
@<TRIPOS>BOND
     1     1     2 1   
     2     1    16 1   
     3     1    17 1   
     4     1    31 1   
     5     2     3 1   
     6     2    18 1   
     7     2    19 1   
     8     3     4 1   
     9     3    20 1   
    10     3    21 1   
    11     4     5 1   
    12     4    22 1   
    13     4    23 1   
    14     5     6 1   
    15     5    24 1   
    16     6     7 ar  
    17     6     8 ar  
    18     7    12 ar  
    19     7    25 1   
    20     8     9 1   
    21     8    13 ar  
    22     9    10 1   
    23     9    11 1   
    24    12    14 ar  
    25    12    26 1   
    26    13    14 ar  
    27    13    27 1   
    28    14    15 1   
    29    15    28 1   
    30    15    29 1   
    31    15    30 1   
@<TRIPOS>SUBSTRUCTURE
     1 NP1         1 TEMP              0 ****  ****    0 ROOT
