@<TRIPOS>MOLECULE
molecule
   28    28     1     0     0
SMALL
bcc


@<TRIPOS>ATOM
      1 NZ           0.0000     0.0000     0.0000 nz         1 NP2      -0.809600
      2 CA           1.4680     0.0000     0.0000 c3         1 NP2       0.094800
      3 CB           1.9790     0.0000     1.4430 c3         1 NP2      -0.130400
      4 CG           3.5090    -0.0000     1.4430 c3         1 NP2       0.253800
      5 NE           3.9970    -0.0010     2.8240 nu         1 NP2      -0.826600
      6 CD           5.3700    -0.0000     3.0790 ca         1 NP2       0.245600
      7 CE1          6.2730    -0.1230     2.0310 ca         1 NP2      -0.217000
      8 CE2          5.8360     0.1280     4.3810 ca         1 NP2      -0.217200
      9 NO2          4.8780     0.2610     5.5010 no         1 NP2       0.296200
     10 OC1          5.1070    -0.2840     6.5660 o          1 NP2      -0.206500
     11 OC2          3.8600     0.9140     5.3590 o          1 NP2      -0.206500
     12 CR1          7.6300    -0.1240     2.2870 ca         1 NP2      -0.039000
     13 CR2          7.1950     0.1220     4.6300 ca         1 NP2      -0.023000
     14 CZ           8.0900    -0.0000     3.5850 ca         1 NP2      -0.168000
     15 HNZ1        -0.3340    -0.8170     0.4720 hn         1 NP2       0.460467
     16 HNZ2        -0.3340    -0.0000    -0.9440 hn         1 NP2       0.460467
     17 HA1          1.8300    -0.8840    -0.5110 hx         1 NP2       0.114700
     18 HA2          1.8300     0.8840    -0.5110 hx         1 NP2       0.114700
     19 HB1          1.6180     0.8850     1.9540 hc         1 NP2       0.077700
     20 HB2          1.6180    -0.8840     1.9540 hc         1 NP2       0.077700
     21 HG1          3.8700     0.8840     0.9330 h1         1 NP2       0.052200
     22 HG2          3.8700    -0.8850     0.9320 h1         1 NP2       0.052200
     23 HNE          3.3470    -0.0390     3.5840 hn         1 NP2       0.468800
     24 HE1          5.9140    -0.2200     1.0130 ha         1 NP2       0.136000
     25 HR1          8.3350    -0.2200     1.4700 ha         1 NP2       0.150000
     26 HR2          7.5590     0.2210     5.6460 ha         1 NP2       0.170000
     27 HZ           9.1550    -0.0030     3.7830 ha         1 NP2       0.159000
     28 HZ3         -0.3340     0.8170     0.4720 hn         1 NP2       0.460467
@<TRIPOS>BOND
     1     1     2 1
     2     1    15 1
     3     1    16 1
     4     2     3 1
     5     2    17 1
     6     2    18 1
     7     3     4 1
     8     3    19 1
     9     3    20 1
    10     4     5 1
    11     4    21 1
    12     4    22 1
    13     5     6 1
    14     5    23 1
    15     6     7 ar
    16     6     8 ar
    17     7    12 ar
    18     7    24 1
    19     8     9 1
    20     8    13 ar
    21     9    10 1
    22     9    11 1
    23    12    14 ar
    24    12    25 1
    25    13    14 ar
    26    13    26 1
    27    14    27 1
    28    28     1 1
@<TRIPOS>SUBSTRUCTURE
     1 NP2         1 TEMP              0 ****  ****    0 ROOT
