@<TRIPOS>MOLECULE
NP4
   39    40     1     0     0
SMALL
bcc


@<TRIPOS>ATOM
      1 C1         -0.0100    0.4000   -0.3520 c         1 NP4      0.668700
      2 C2          1.4560    0.2700   -0.2160 ca        1 NP4     -0.168600
      3 O10        -0.6380   -0.8140   -0.4330 os        1 NP4     -0.436900
      4 C3          2.2570    0.3110   -1.3740 ca        1 NP4      0.206100
      5 C4          3.6490    0.2120   -1.2910 ca        1 NP4     -0.249000
      6 C5          4.2410    0.0580   -0.0310 ca        1 NP4      0.199100
      7 C6          3.4490    0.0010    1.1350 ca        1 NP4     -0.095600
      8 C7          2.0540    0.1200    1.0440 ca        1 NP4      0.055700
      9 C8          1.1960    0.0730    2.2620 c3        1 NP4     -0.159100
     10 C9          1.0570    1.3960    2.9760 c         1 NP4      0.574100
     11 C10        -0.1560    1.5040    3.8630 c3        1 NP4     -0.181400
     12 C11        -1.4380    1.6070    3.0560 c3        1 NP4     -0.078400
     13 C12        -2.3320    0.3950    3.2540 c3        1 NP4     -0.050200
     14 C13        -3.4870    0.4390    2.3270 c2        1 NP4     -0.158200
     15 C14        -3.6500   -0.2870    1.2180 c2        1 NP4     -0.169200
     16 C15        -2.7220   -1.3070    0.6770 c3        1 NP4     -0.071200
     17 C16        -2.0600   -0.8430   -0.6170 c3        1 NP4      0.133400
     18 O1         -0.6830    1.4290   -0.3960 o         1 NP4     -0.520000
     19 O3          1.6080    0.4470   -2.5750 oh        1 NP4     -0.483100
     20 O4          5.6070   -0.0400   -0.0330 oh        1 NP4     -0.485100
     21 Cl1         4.2100   -0.2100    2.6440 cl        1 NP4     -0.081400
     22 O5          1.8750    2.3120    2.8790 o         1 NP4     -0.509100
     23 H4          4.2820    0.2540   -2.1880 ha        1 NP4      0.163000
     24 H8C1        0.1680   -0.2960    1.9860 hc        1 NP4      0.089200
     25 H8C2        1.6190   -0.6630    3.0020 hc        1 NP4      0.089200
     26 H101       -0.0440    2.4130    4.5120 hc        1 NP4      0.067200
     27 H102       -0.1820    0.6090    4.5400 hc        1 NP4      0.067200
     28 H111       -1.9980    2.5280    3.3660 hc        1 NP4      0.063700
     29 H112       -1.2050    1.7230    1.9620 hc        1 NP4      0.063700
     30 H121       -1.7320   -0.5440    3.1130 hc        1 NP4      0.043200
     31 H122       -2.7100    0.3790    4.3130 hc        1 NP4      0.043200
     32 H13        -4.2640    1.1710    2.6120 ha        1 NP4      0.122000
     33 H14        -4.5600   -0.1420    0.6080 ha        1 NP4      0.120000
     34 H151       -1.9240   -1.5800    1.4180 hc        1 NP4      0.057200
     35 H152       -3.3040   -2.2460    0.4670 hc        1 NP4      0.057200
     36 H161       -2.2040   -1.6010   -1.4340 h1        1 NP4      0.070700
     37 H162       -2.4460    0.1540   -0.9510 h1        1 NP4      0.070700
     38 H3          2.2760    0.5080   -3.2760 ho        1 NP4      0.432000
     39 HA          5.9170   -0.0890    0.8870 ho        1 NP4      0.438000
@<TRIPOS>BOND
     1    1    2 1   
     2    1    3 1   
     3    1   18 2   
     4    2    4 ar  
     5    2    8 ar  
     6    3   17 1   
     7    4    5 ar  
     8    4   19 1   
     9    5    6 ar  
    10    5   23 1   
    11    6    7 ar  
    12    6   20 1   
    13    7    8 ar  
    14    7   21 1   
    15    8    9 1   
    16    9   10 1   
    17    9   24 1   
    18    9   25 1   
    19   10   11 1   
    20   10   22 2   
    21   11   12 1   
    22   11   26 1   
    23   11   27 1   
    24   12   13 1   
    25   12   28 1   
    26   12   29 1   
    27   13   14 1   
    28   13   30 1   
    29   13   31 1   
    30   14   15 2   
    31   14   32 1   
    32   15   16 1   
    33   15   33 1   
    34   16   17 1   
    35   16   34 1   
    36   16   35 1   
    37   17   36 1   
    38   17   37 1   
    39   19   38 1   
    40   20   39 1   
@<TRIPOS>SUBSTRUCTURE
     1 NP4         1 TEMP              0 ****  ****    0 ROOT
