@<TRIPOS>MOLECULE
NP4
   39    40     1     0     0
SMALL
bcc


@<TRIPOS>ATOM
      1 C1         -0.0060    0.3860   -0.3530 c         1 NP4      0.668700
      2 C2          1.4600    0.2630   -0.2120 ca        1 NP4     -0.168600
      3 O10        -0.6290   -0.8320   -0.4260 os        1 NP4     -0.435900
      4 C3          2.2640    0.2970   -1.3680 ca        1 NP4      0.206100
      5 C4          3.6560    0.2040   -1.2810 ca        1 NP4     -0.249000
      6 C5          4.2450    0.0650   -0.0170 ca        1 NP4      0.199100
      7 C6          3.4500    0.0150    1.1470 ca        1 NP4     -0.095600
      8 C7          2.0550    0.1280    1.0520 ca        1 NP4      0.055700
      9 C8          1.1940    0.0880    2.2670 c3        1 NP4     -0.159100
     10 C9          1.0470    1.4170    2.9680 c         1 NP4      0.574100
     11 C10        -0.1690    1.5280    3.8500 c3        1 NP4     -0.181400
     12 C11        -1.4490    1.6180    3.0400 c3        1 NP4     -0.078400
     13 C12        -2.3380    0.4040    3.2460 c3        1 NP4     -0.050200
     14 C13        -3.4910    0.4340    2.3150 c2        1 NP4     -0.158200
     15 C14        -3.6480   -0.3020    1.2120 c2        1 NP4     -0.169200
     16 C15        -2.7140   -1.3230    0.6830 c3        1 NP4     -0.071200
     17 C16        -2.0510   -0.8680   -0.6130 c3        1 NP4      0.133400
     18 O1         -0.6840    1.4110   -0.4090 o         1 NP4     -0.520000
     19 O3          1.6180    0.4180   -2.5720 oh        1 NP4     -0.483100
     20 O4          5.6120   -0.0280   -0.0140 oh        1 NP4     -0.485100
     21 CL1         4.2070   -0.1790    2.6610 cl        1 NP4     -0.081400
     22 O5          1.8610    2.3360    2.8650 o         1 NP4     -0.509100
     23 H4          4.2920    0.2400   -2.1760 ha        1 NP4      0.163000
     24 H8C1        0.1680   -0.2870    1.9910 hc        1 NP4      0.089200
     25 H8C2        1.6170   -0.6390    3.0150 hc        1 NP4      0.089200
     26 H101       -0.0620    2.4430    4.4920 hc        1 NP4      0.067200
     27 H102       -0.1930    0.6390    4.5360 hc        1 NP4      0.067200
     28 H111       -2.0140    2.5400    3.3400 hc        1 NP4      0.063200
     29 H112       -1.2140    1.7260    1.9450 hc        1 NP4      0.063200
     30 H121       -1.7340   -0.5330    3.1150 hc        1 NP4      0.043200
     31 H122       -2.7190    0.3960    4.3040 hc        1 NP4      0.043200
     32 H13        -4.2710    1.1660    2.5910 ha        1 NP4      0.122000
     33 H14        -4.5560   -0.1660    0.5980 ha        1 NP4      0.120000
     34 H151       -3.2910   -2.2660    0.4800 hc        1 NP4      0.057200
     35 H152       -1.9170   -1.5860    1.4290 hc        1 NP4      0.057200
     36 H161       -2.4400    0.1250   -0.9570 h1        1 NP4      0.070700
     37 H162       -2.1890   -1.6340   -1.4230 h1        1 NP4      0.070700
     38 H3          2.2880    0.4760   -3.2710 ho        1 NP4      0.432000
     39 HA          5.9190   -0.0670    0.9070 ho        1 NP4      0.438000
@<TRIPOS>BOND
     1    1    2 1   
     2    1    3 1   
     3    1   18 2   
     4    2    4 ar  
     5    2    8 ar  
     6    3   17 1   
     7    4    5 ar  
     8    4   19 1   
     9    5    6 ar  
    10    5   23 1   
    11    6    7 ar  
    12    6   20 1   
    13    7    8 ar  
    14    7   21 1   
    15    8    9 1   
    16    9   10 1   
    17    9   24 1   
    18    9   25 1   
    19   10   11 1   
    20   10   22 2   
    21   11   12 1   
    22   11   26 1   
    23   11   27 1   
    24   12   13 1   
    25   12   28 1   
    26   12   29 1   
    27   13   14 1   
    28   13   30 1   
    29   13   31 1   
    30   14   15 2   
    31   14   32 1   
    32   15   16 1   
    33   15   33 1   
    34   16   17 1   
    35   16   34 1   
    36   16   35 1   
    37   17   36 1   
    38   17   37 1   
    39   19   38 1   
    40   20   39 1   
@<TRIPOS>SUBSTRUCTURE
     1 NP4         1 TEMP              0 ****  ****    0 ROOT
