@<TRIPOS>MOLECULE
NP5
   39    40     1     0     0
SMALL
bcc


@<TRIPOS>ATOM
      1 C1          0.1380    0.6280   -0.0520 c         1 NP5      0.675700
      2 O10         1.2240   -0.1920    0.0480 os        1 NP5     -0.414900
      3 C2         -0.6350    0.4030   -1.2900 ca        1 NP5     -0.171600
      4 C3         -0.0080    0.5820   -2.5400 ca        1 NP5      0.212100
      5 C4         -0.7000    0.3680   -3.7360 ca        1 NP5     -0.255000
      6 C5         -2.0410   -0.0330   -3.6760 ca        1 NP5      0.202100
      7 C6         -2.6850   -0.2020   -2.4330 ca        1 NP5     -0.104600
      8 C7         -1.9830    0.0110   -1.2360 ca        1 NP5      0.066700
      9 C8         -2.6660   -0.1490    0.0790 c3        1 NP5     -0.169100
     10 C9         -2.7150   -1.5630    0.6000 c         1 NP5      0.578100
     11 C10        -3.3860   -1.6820    1.9430 c3        1 NP5     -0.178400
     12 C11        -2.8340   -2.8060    2.7940 c3        1 NP5     -0.071400
     13 C12        -1.5740   -2.4290    3.5500 c3        1 NP5     -0.050200
     14 C13        -0.3740   -2.3790    2.6800 c2        1 NP5     -0.167200
     15 C14         0.6150   -1.4950    2.8380 c2        1 NP5     -0.178200
     16 C15         1.8320   -1.4740    1.9920 c3        1 NP5     -0.069200
     17 C16         2.0050   -0.1550    1.2520 c3        1 NP5      0.133400
     18 O1         -0.0890    1.4440    0.8460 o         1 NP5     -0.550000
     19 O3          1.2980    1.0000   -2.5270 oh        1 NP5     -0.477100
     20 O4         -2.6510   -0.2260   -4.8860 oh        1 NP5     -0.485100
     21 CL1        -4.3220   -0.6800   -2.4080 cl        1 NP5     -0.087400
     22 O5         -2.2800   -2.5380   -0.0170 o         1 NP5     -0.518100
     23 H4         -0.2160    0.5020   -4.7120 ha        1 NP5      0.163000
     24 H8C1       -2.1550    0.4890    0.8550 hc        1 NP5      0.098700
     25 H8C2       -3.7250    0.2250    0.0060 hc        1 NP5      0.098700
     26 H101       -3.3080   -0.7090    2.4950 hc        1 NP5      0.065200
     27 H102       -4.4770   -1.8710    1.7440 hc        1 NP5      0.065200
     28 H111       -3.6190   -3.0990    3.5420 hc        1 NP5      0.054700
     29 H112       -2.6340   -3.7000    2.1440 hc        1 NP5      0.054700
     30 H121       -1.7260   -1.4490    4.0760 hc        1 NP5      0.048200
     31 H122       -1.3950   -3.2050    4.3460 hc        1 NP5      0.048200
     32 H13        -0.3420   -3.1370    1.8780 ha        1 NP5      0.137000
     33 H14         0.5760   -0.7210    3.6230 ha        1 NP5      0.122000
     34 H151        2.7330   -1.6210    2.6470 hc        1 NP5      0.060700
     35 H152        1.8140   -2.3110    1.2440 hc        1 NP5      0.060700
     36 H161        3.0610   -0.0480    0.8850 h1        1 NP5      0.067700
     37 H162        1.7310    0.7200    1.8950 h1        1 NP5      0.067700
     38 H3          1.6150    1.0300   -3.4430 ho        1 NP5      0.430000
     39 HA         -3.5590   -0.5370   -4.7320 ho        1 NP5      0.438000
@<TRIPOS>BOND
     1    1    2 1   
     2    1    3 1   
     3    1   18 2   
     4    2   17 1   
     5    3    4 ar  
     6    3    8 ar  
     7    4    5 ar  
     8    4   19 1   
     9    5    6 ar  
    10    5   23 1   
    11    6    7 ar  
    12    6   20 1   
    13    7    8 ar  
    14    7   21 1   
    15    8    9 1   
    16    9   10 1   
    17    9   24 1   
    18    9   25 1   
    19   10   11 1   
    20   10   22 2   
    21   11   12 1   
    22   11   26 1   
    23   11   27 1   
    24   12   13 1   
    25   12   28 1   
    26   12   29 1   
    27   13   14 1   
    28   13   30 1   
    29   13   31 1   
    30   14   15 2   
    31   14   32 1   
    32   15   16 1   
    33   15   33 1   
    34   16   17 1   
    35   16   34 1   
    36   16   35 1   
    37   17   36 1   
    38   17   37 1   
    39   19   38 1   
    40   20   39 1   
@<TRIPOS>SUBSTRUCTURE
     1 NP5         1 TEMP              0 ****  ****    0 ROOT
