@<TRIPOS>MOLECULE
molecule
   50    51     1     0     0
SMALL
bcc


@<TRIPOS>ATOM
      1 C2           0.0000     0.0000     0.0000 c3         1 NP6      -0.095100
      2 C1           1.5300     0.0000     0.0000 c3         1 NP6      -0.068400
      3 C3           2.0400     0.0000     1.4430 c3         1 NP6      -0.152400
      4 C4           3.5470     0.0000     1.4430 c          1 NP6       0.675100
      5 O1           4.1540     0.0020     0.3930 o          1 NP6      -0.598100
      6 N1           4.2210     0.0010     2.6110 ns         1 NP6      -0.573900
      7 C5           5.6860     0.0020     2.6110 c3         1 NP6       0.091400
      8 C6           6.2030    -0.6100     3.9200 c3         1 NP6       0.116100
      9 O2           5.8980    -2.0050     3.9500 oh         1 NP6      -0.592800
     10 C7           7.7200    -0.4150     3.9930 c3         1 NP6       0.100100
     11 O3           8.2150    -0.9750     5.2100 oh         1 NP6      -0.600800
     12 C8           8.0430     1.0810     3.9490 c3         1 NP6       0.151100
     13 C9           9.5600     1.2790     3.9850 c3         1 NP6       0.150400
     14 O4           9.8570     2.6740     4.0630 oh         1 NP6      -0.599800
     15 O5           7.5170     1.6450     2.7430 os         1 NP6      -0.424400
     16 C10          6.1950     1.4230     2.5180 c2         1 NP6       0.505600
     17 N2           5.3980     2.3970     2.2310 n2         1 NP6      -0.415200
     18 O6           5.8270     3.5340     2.1600 os         1 NP6      -0.129600
     19 C11          4.9430     4.5020     1.8570 c          1 NP6       0.751100
     20 O7           3.7760     4.2230     1.6690 o          1 NP6      -0.549000
     21 N3           5.3520     5.7840     1.7630 ns         1 NP6      -0.460100
     22 C12          4.4550     6.7760     1.3550 ca         1 NP6       0.067600
     23 C13          3.1190     6.7010     1.7220 ca         1 NP6      -0.141000
     24 C14          2.2350     7.6820     1.3170 ca         1 NP6      -0.112500
     25 C15          2.6810     8.7400     0.5450 ca         1 NP6      -0.142000
     26 C16          4.0120     8.8180     0.1770 ca         1 NP6      -0.112500
     27 C17          4.9010     7.8430     0.5840 ca         1 NP6      -0.141000
     28 H21C        -0.3610     0.8830     0.5140 hc         1 NP6       0.032367
     29 H22C        -0.3610     0.0040    -1.0210 hc         1 NP6       0.032367
     30 H23C        -0.3610    -0.8860     0.5070 hc         1 NP6       0.032367
     31 H11C         1.8910    -0.8850    -0.5110 hc         1 NP6       0.059700
     32 H12C         1.8910     0.8850    -0.5110 hc         1 NP6       0.059700
     33 H31C         1.6790    -0.8850     1.9540 hc         1 NP6       0.060700
     34 H32C         1.6790     0.8840     1.9540 hc         1 NP6       0.060700
     35 H1           3.7200     0.0070     3.4770 hn         1 NP6       0.314500
     36 H5           6.0560    -0.5730     1.7710 h1         1 NP6       0.118700
     37 H6           5.7340    -0.1130     4.7600 h1         1 NP6       0.052700
     38 H2           5.4550    -2.2130     4.7560 ho         1 NP6       0.413000
     39 H7           8.1860    -0.9070     3.1480 h1         1 NP6       0.063700
     40 H3           8.6460    -1.7930     5.0270 ho         1 NP6       0.417000
     41 H8           7.5900     1.5710     4.8030 h1         1 NP6       0.069700
     42 H91C         9.9990     0.8660     3.0850 h1         1 NP6       0.038700
     43 H92C         9.9700     0.7730     4.8510 h1         1 NP6       0.038700
     44 H4          10.7850     2.7920     4.1820 ho         1 NP6       0.405000
     45 HA           6.2900     6.0290     2.0120 hn         1 NP6       0.336500
     46 H13          2.7690     5.8730     2.3270 ha         1 NP6       0.149000
     47 H17          5.9430     7.9050     0.2960 ha         1 NP6       0.149000
     48 H14          1.1920     7.6240     1.6040 ha         1 NP6       0.133000
     49 H15          1.9860     9.5080     0.2260 ha         1 NP6       0.130000
     50 H16          4.3590     9.6490    -0.4260 ha         1 NP6       0.133000
@<TRIPOS>BOND
     1     1     2 1
     2     2     3 1
     3     3     4 1
     4     4     5 2
     5     4     6 1
     6     6     7 1
     7     7     8 1
     8     7    16 1
     9     8     9 1
    10     8    10 1
    11    10    11 1
    12    10    12 1
    13    12    13 1
    14    12    15 1
    15    13    14 1
    16    15    16 1
    17    16    17 2
    18    17    18 1
    19    18    19 1
    20    19    20 2
    21    19    21 1
    22    21    22 1
    23    22    23 ar
    24    22    27 ar
    25    23    24 ar
    26    24    25 ar
    27    25    26 ar
    28    26    27 ar
    29     1    28 1
    30     1    29 1
    31     1    30 1
    32     2    31 1
    33     2    32 1
    34     3    33 1
    35     3    34 1
    36     6    35 1
    37     7    36 1
    38     8    37 1
    39     9    38 1
    40    10    39 1
    41    11    40 1
    42    12    41 1
    43    13    42 1
    44    13    43 1
    45    14    44 1
    46    21    45 1
    47    23    46 1
    48    27    47 1
    49    24    48 1
    50    25    49 1
    51    26    50 1
@<TRIPOS>SUBSTRUCTURE
     1 NP6         1 TEMP              0 ****  ****    0 ROOT
