@<TRIPOS>MOLECULE
NP7
   45    47     1     0     0
SMALL
bcc


@<TRIPOS>ATOM
      1 CAA          0.0000     0.0000     0.0000 c3         1 NP7       0.189100
      2 OAB          6.3710    -4.9120     2.7330 o          1 NP7      -0.627100
      3 OAC          8.5470    -0.6220     5.7260 o          1 NP7      -0.448000
      4 OAD          9.0810    -2.4380     4.7960 o          1 NP7      -0.448000
      5 CAF          4.6910    -7.7550    -0.9800 ca         1 NP7      -0.061000
      6 CAG          4.3410    -6.4460    -1.2610 ca         1 NP7      -0.113000
      7 CAH          5.3880    -8.0580     0.1770 ca         1 NP7      -0.113000
      8 CAI          4.6850    -5.4340    -0.3900 ca         1 NP7      -0.072000
      9 CAJ          6.2240    -0.3640     4.2170 ca         1 NP7      -0.023000
     10 CAK          5.0840    -0.2920     3.4380 ca         1 NP7      -0.136000
     11 CAL          6.8300    -2.4280     3.1600 ca         1 NP7      -0.020000
     12 CAM          2.4210     0.0000     0.0000 c3         1 NP7       0.154300
     13 CAN          1.2120    -1.2930     1.6490 c3         1 NP7       0.154300
     14 CAO          3.6560     0.0000     0.9040 c3         1 NP7       0.148800
     15 CAP          2.4470    -1.2940     2.5550 c3         1 NP7       0.148800
     16 CAR          5.7600    -4.6510     1.7160 c          1 NP7       0.585700
     17 CAS          5.7390    -7.0540     1.0580 ca         1 NP7       0.010400
     18 CAT          7.0940    -1.4290     4.0790 ca         1 NP7      -0.431200
     19 CAU          5.6890    -2.3640     2.3740 ca         1 NP7      -0.078400
     20 CAV          5.3870    -5.7310     0.7790 ca         1 NP7      -0.164600
     21 CAW          4.8110    -1.2900     2.5140 ca         1 NP7       0.024600
     22 NAX          1.2100    -0.0740     0.8290 n3         1 NP7      -0.548600
     23 NAY          3.6580    -1.2190     1.7260 nh         1 NP7      -0.423000
     24 HAA         -0.0250    -0.8430    -0.6800 h1         1 NP7       0.002367
     25 HAAA         0.0080     0.9220    -0.5690 h1         1 NP7       0.002367
     26 HAAB        -0.8760    -0.0240     0.6370 h1         1 NP7       0.002367
     27 HAF          4.4190    -8.5460    -1.6680 ha         1 NP7       0.106000
     28 HAG          3.7960    -6.2160    -2.1690 ha         1 NP7       0.108000
     29 HAH          5.6590    -9.0850     0.3910 ha         1 NP7       0.119000
     30 HAI          4.4100    -4.4100    -0.6130 ha         1 NP7       0.104000
     31 HAJ          6.4350     0.4160     4.9390 ha         1 NP7       0.133000
     32 HAK          4.4040     0.5440     3.5500 ha         1 NP7       0.125000
     33 HAL          7.5150    -3.2610     3.0540 ha         1 NP7       0.177000
     34 HAM          2.4020     0.9120    -0.5840 h1         1 NP7       0.015450
     35 HAMA         2.4590    -0.8580    -0.6610 h1         1 NP7       0.015450
     36 HAN          1.2390    -2.1620     1.0030 h1         1 NP7       0.015450
     37 HANA         0.3180    -1.3180     2.2600 h1         1 NP7       0.015450
     38 HAO          4.5500     0.0240     0.2930 h1         1 NP7       0.021950
     39 HAOA         3.6300     0.8690     1.5500 h1         1 NP7       0.021950
     40 HAP          2.4660    -2.2060     3.1380 h1         1 NP7       0.021950
     41 HAPA         2.4090    -0.4360     3.2150 h1         1 NP7       0.021950
     42 HNAQ         4.8810    -3.1670     0.6260 hn         1 NP7       0.188500
     43 NAZ          8.3130    -1.5000     4.9170 no         1 NP7       1.047200
     44 NAQ          5.4200    -3.3750     1.4430 ns         1 NP7      -0.025100
     45 ClAE         6.6130    -7.4350     2.5090 cl         1 NP7       0.048600
@<TRIPOS>BOND
     1     1    22 1   
     2     1    24 1   
     3     1    25 1   
     4     1    26 1   
     5     2    16 2   
     6     3    43 1   
     7     4    43 1   
     8     5     6 ar  
     9     5     7 ar  
    10     5    27 1   
    11     6     8 ar  
    12     6    28 1   
    13     7    17 ar  
    14     7    29 1   
    15     8    20 ar  
    16     8    30 1   
    17     9    10 ar  
    18     9    18 ar  
    19     9    31 1   
    20    10    21 ar  
    21    10    32 1   
    22    11    18 ar  
    23    11    19 ar  
    24    11    33 1   
    25    12    14 1   
    26    12    22 1   
    27    12    34 1   
    28    12    35 1   
    29    13    15 1   
    30    13    22 1   
    31    13    36 1   
    32    13    37 1   
    33    14    23 1   
    34    14    38 1   
    35    14    39 1   
    36    15    23 1   
    37    15    40 1   
    38    15    41 1   
    39    16    20 1   
    40    16    44 1   
    41    17    20 ar  
    42    17    45 1   
    43    18    43 1   
    44    19    21 ar  
    45    19    44 1   
    46    21    23 1   
    47    42    44 1   
@<TRIPOS>SUBSTRUCTURE
     1 NP7         1 TEMP              0 ****  ****    0 ROOT
