@<TRIPOS>MOLECULE
molecule
   50    53     1     0     0
SMALL
bcc


@<TRIPOS>ATOM
      1 C01          0.0000     0.0000     0.0000 c3         1 NP8       0.126700
      2 O05          1.4290     0.0000     0.0000 os         1 NP8      -0.323900
      3 C06          2.0450     0.0000     1.2120 ca         1 NP8       0.020800
      4 C07          1.2980     0.0000     2.3810 ca         1 NP8       0.330200
      5 N09          1.8840     0.0000     3.5620 nb         1 NP8      -0.654000
      6 C10          3.1960    -0.0000     3.6880 ca         1 NP8       0.380200
      7 C12          4.0190     0.0010     2.5620 cp         1 NP8      -0.113300
      8 C13          3.4320    -0.0060     1.2940 ca         1 NP8      -0.120000
      9 C15          5.4930     0.0010     2.7090 cp         1 NP8      -0.184300
     10 C16          6.2770    -0.9120     2.0170 ca         1 NP8       0.456200
     11 N18          7.5920    -0.9190     2.1420 nb         1 NP8      -0.741000
     12 C19          8.2380    -0.0690     2.9230 ca         1 NP8       0.683200
     13 N20          9.6230    -0.1290     3.0090 nu         1 NP8      -0.914900
     14 C22         10.3630    -1.1310     2.2380 c3         1 NP8       0.247500
     15 C24         11.7920    -0.6370     1.9960 c3         1 NP8      -0.093900
     16 C27         12.5780    -1.7130     1.2440 c3         1 NP8       0.161300
     17 N30         12.5960    -2.9510     2.0340 n7         1 NP8      -0.821200
     18 C32         11.2380    -3.4700     2.2390 c3         1 NP8       0.161300
     19 C35         10.4120    -2.4460     3.0220 c3         1 NP8      -0.093900
     20 C38          7.5350     0.8910     3.6620 ca         1 NP8      -0.101700
     21 N39          8.1820     1.7880     4.4820 ns         1 NP8      -0.421100
     22 C41          7.4900     2.7040     5.1850 c          1 NP8       0.695700
     23 O42          8.0930     3.4820     5.9010 o          1 NP8      -0.645500
     24 C43          6.0810     2.7840     5.1120 cc         1 NP8      -0.164400
     25 C44          5.3460     3.8260     5.9150 c3         1 NP8      -0.037900
     26 C48          5.3890     1.9270     4.3200 cd         1 NP8      -0.066200
     27 C50          6.1360     0.9340     3.5520 ca         1 NP8      -0.040800
     28 H011        -0.3610     0.8830     0.5130 h1         1 NP8       0.044700
     29 H012        -0.3610     0.0020    -1.0210 h1         1 NP8       0.044700
     30 H013        -0.3610    -0.8860     0.5090 h1         1 NP8       0.044700
     31 H07          0.2160     0.0000     2.3220 h4         1 NP8       0.027100
     32 H13          4.0420    -0.0060     0.3980 ha         1 NP8       0.156000
     33 H10          3.6390     0.0030     4.6760 h4         1 NP8       0.032100
     34 H16          5.8020    -1.6330     1.3630 h4         1 NP8       0.031100
     35 H20         10.1170     0.5260     3.5830 hn         1 NP8       0.440800
     36 H22          9.8730    -1.2970     1.2860 h1         1 NP8       0.078700
     37 H241        11.7650     0.2700     1.4040 hc         1 NP8       0.055700
     38 H242        12.2710    -0.4390     2.9480 hc         1 NP8       0.055700
     39 H351         9.4050    -2.8220     3.1570 hc         1 NP8       0.055700
     40 H352        10.8730    -2.2730     3.9870 hc         1 NP8       0.055700
     41 H271        13.5940    -1.3730     1.0860 h1         1 NP8       0.035450
     42 H272        12.1030    -1.9030     0.2890 h1         1 NP8       0.035450
     43 H30         13.1490    -3.6390     1.5630 hn         1 NP8       0.355800
     44 H321        11.2880    -4.3950     2.8000 h1         1 NP8       0.035450
     45 H322        10.7720    -3.6480     1.2780 h1         1 NP8       0.035450
     46 H39          9.1790     1.7600     4.5560 hn         1 NP8       0.333500
     47 H441         5.1240     3.4330     6.9000 hc         1 NP8       0.054367
     48 H442         5.9640     4.7110     6.0110 hc         1 NP8       0.054367
     49 H443         4.4220     4.0840     5.4120 hc         1 NP8       0.054367
     50 H48          4.3080     1.9800     4.2570 ha         1 NP8       0.158000
@<TRIPOS>BOND
     1     1     2 1
     2     2     3 1
     3     3     4 ar
     4     3     8 ar
     5     4     5 ar
     6     5     6 ar
     7     6     7 ar
     8     7     8 ar
     9     7     9 1
    10     9    10 ar
    11     9    27 ar
    12    10    11 ar
    13    11    12 ar
    14    12    13 1
    15    12    20 ar
    16    13    14 1
    17    14    15 1
    18    14    19 1
    19    15    16 1
    20    16    17 1
    21    17    18 1
    22    18    19 1
    23    20    21 1
    24    20    27 ar
    25    21    22 1
    26    22    23 2
    27    22    24 1
    28    24    25 1
    29    24    26 2
    30    26    27 1
    31     1    28 1
    32     1    29 1
    33     1    30 1
    34     4    31 1
    35     8    32 1
    36     6    33 1
    37    10    34 1
    38    13    35 1
    39    14    36 1
    40    15    37 1
    41    15    38 1
    42    19    39 1
    43    19    40 1
    44    16    41 1
    45    16    42 1
    46    17    43 1
    47    18    44 1
    48    18    45 1
    49    21    46 1
    50    25    47 1
    51    25    48 1
    52    25    49 1
    53    26    50 1
@<TRIPOS>SUBSTRUCTURE
     1 NP8         1 TEMP              0 ****  ****    0 ROOT
