@<TRIPOS>MOLECULE
NP8
   50    53     1     0     0
SMALL
bcc


@<TRIPOS>ATOM
      1 C01          0.0000     0.0000     0.0000 c3         1 NP8       0.242700
      2 O05          1.4290     0.0000     0.0000 os         1 NP8      -0.300900
      3 C06          2.0450     0.0000     1.2120 ca         1 NP8       0.039800
      4 C07          1.2980     0.0000     2.3810 ca         1 NP8       0.294200
      5 N09          1.8840     0.0000     3.5620 nb         1 NP8      -0.538000
      6 C10          3.1960    -0.0000     3.6880 ca         1 NP8       0.350200
      7 C12          4.0190     0.0010     2.5620 cp         1 NP8      -0.092300
      8 C13          3.4320    -0.0060     1.2940 ca         1 NP8      -0.111000
      9 C15          5.4930     0.0010     2.7090 cp         1 NP8      -0.177300
     10 C16          6.2770    -0.9120     2.0170 ca         1 NP8       0.441200
     11 N18          7.5920    -0.9190     2.1420 nb         1 NP8      -0.632000
     12 C19          8.2380    -0.0690     2.9230 ca         1 NP8       0.502200
     13 N20          9.6230    -0.1290     3.0090 nu         1 NP8      -0.509900
     14 C22         10.3630    -1.1310     2.2380 c3         1 NP8       0.137500
     15 C24         11.7920    -0.6370     1.9960 c3         1 NP8      -0.040900
     16 C27         12.5780    -1.7130     1.2440 c3         1 NP8       0.154300
     17 N30         12.5960    -2.9510     2.0340 n7         1 NP8      -0.582200
     18 C32         11.2380    -3.4700     2.2390 c3         1 NP8       0.154300
     19 C35         10.4120    -2.4460     3.0220 c3         1 NP8      -0.040900
     20 C38          7.5350     0.8910     3.6620 ca         1 NP8      -0.265700
     21 N39          8.1820     1.7880     4.4820 ns         1 NP8       0.054900
     22 C41          7.4900     2.7040     5.1850 c          1 NP8       0.593700
     23 O42          8.0930     3.4820     5.9010 o          1 NP8      -0.691500
     24 C43          6.0810     2.7840     5.1120 cc         1 NP8      -0.170400
     25 C44          5.3460     3.8260     5.9150 c3         1 NP8       0.071100
     26 C48          5.3890     1.9270     4.3200 cd         1 NP8      -0.051200
     27 C50          6.1360     0.9340     3.5520 ca         1 NP8      -0.027800
     28 H011        -0.3610     0.8830     0.5130 h1         1 NP8       0.000367
     29 H012        -0.3610     0.0020    -1.0210 h1         1 NP8       0.000367
     30 H013        -0.3610    -0.8860     0.5090 h1         1 NP8       0.000367
     31 H07          0.2160     0.0000     2.3220 h4         1 NP8      -0.004900
     32 H13          4.0420    -0.0060     0.3980 ha         1 NP8       0.128000
     33 H10          3.6390     0.0030     4.6760 h4         1 NP8      -0.006900
     34 H16          5.8020    -1.6330     1.3630 h4         1 NP8      -0.014900
     35 H20         10.1170     0.5260     3.5830 hn         1 NP8       0.292800
     36 H22          9.8730    -1.2970     1.2860 h1         1 NP8       0.056700
     37 H241        11.7650     0.2700     1.4040 hc         1 NP8       0.026200
     38 H242        12.2710    -0.4390     2.9480 hc         1 NP8       0.026200
     39 H351         9.4050    -2.8220     3.1570 hc         1 NP8       0.026200
     40 H352        10.8730    -2.2730     3.9870 hc         1 NP8       0.026200
     41 H271        13.5940    -1.3730     1.0860 h1         1 NP8       0.007700
     42 H272        12.1030    -1.9030     0.2890 h1         1 NP8       0.007700
     43 H30         13.1490    -3.6390     1.5630 hn         1 NP8       0.253800
     44 H321        11.2880    -4.3950     2.8000 h1         1 NP8       0.007700
     45 H322        10.7720    -3.6480     1.2780 h1         1 NP8       0.007700
     46 H39          9.1790     1.7600     4.5560 hn         1 NP8       0.171500
     47 H441         5.1240     3.4330     6.9000 hc         1 NP8       0.016367
     48 H442         5.9640     4.7110     6.0110 hc         1 NP8       0.016367
     49 H443         4.4220     4.0840     5.4120 hc         1 NP8       0.016367
     50 H48          4.3080     1.9800     4.2570 ha         1 NP8       0.134000
@<TRIPOS>BOND
     1     1     2 1   
     2     1    28 1   
     3     1    29 1   
     4     1    30 1   
     5     2     3 1   
     6     3     4 ar  
     7     3     8 ar  
     8     4     5 ar  
     9     4    31 1   
    10     5     6 ar  
    11     6     7 ar  
    12     6    33 1   
    13     7     8 ar  
    14     7     9 1   
    15     8    32 1   
    16     9    10 ar  
    17     9    27 ar  
    18    10    11 ar  
    19    10    34 1   
    20    11    12 ar  
    21    12    13 1   
    22    12    20 ar  
    23    13    14 1   
    24    13    35 1   
    25    14    15 1   
    26    14    19 1   
    27    14    36 1   
    28    15    16 1   
    29    15    37 1   
    30    15    38 1   
    31    16    17 1   
    32    16    41 1   
    33    16    42 1   
    34    17    18 1   
    35    17    43 1   
    36    18    19 1   
    37    18    44 1   
    38    18    45 1   
    39    19    39 1   
    40    19    40 1   
    41    20    21 1   
    42    20    27 ar  
    43    21    22 1   
    44    21    46 1   
    45    22    23 2   
    46    22    24 1   
    47    24    25 1   
    48    24    26 2   
    49    25    47 1   
    50    25    48 1   
    51    25    49 1   
    52    26    27 1   
    53    26    50 1   
@<TRIPOS>SUBSTRUCTURE
     1 NP8         1 TEMP              0 ****  ****    0 ROOT
