@<TRIPOS>MOLECULE
molecule
   20    20     1     0     0
SMALL
bcc


@<TRIPOS>ATOM
      1 C1           0.0000     0.0000     0.0000 ca         1 NPA      -0.048300
      2 C2           1.3630     0.0000     0.0000 ca         1 NPA      -0.021000
      3 C3           2.0660     0.0000     1.2190 ca         1 NPA      -0.235200
      4 C4           1.3470    -0.0100     2.4340 ca         1 NPA       0.175100
      5 C5          -0.0400    -0.0150     2.4050 ca         1 NPA      -0.232000
      6 C6          -0.7060    -0.0110     1.1960 ca         1 NPA      -0.028000
      7 C7          -0.7480     0.0040    -1.3080 c3         1 NPA      -0.154100
      8 C8          -1.0030     1.4260    -1.7350 c          1 NPA       0.891600
      9 N1           3.4050     0.0050     1.2260 no         1 NPA       0.341200
     10 O1           4.0080     0.0010     2.2850 o          1 NPA      -0.246000
     11 O2           4.0210     0.0150     0.1760 o          1 NPA      -0.246000
     12 O3           2.0050    -0.0150     3.6180 oh         1 NPA      -0.479100
     13 O4          -0.6170     2.3420    -1.0480 o          1 NPA      -0.837300
     14 O5          -1.6590     1.6750    -2.8800 o          1 NPA      -0.837300
     15 H2           1.9050     0.0080    -0.9380 ha         1 NPA       0.174000
     16 H5          -0.6010    -0.0230     3.3320 ha         1 NPA       0.130000
     17 H6          -1.7890    -0.0120     1.1800 ha         1 NPA       0.142000
     18 H71         -1.6930    -0.5110    -1.1850 hc         1 NPA       0.046200
     19 H72         -0.1570    -0.4990    -2.0630 hc         1 NPA       0.046200
     20 HO3          1.5840     0.5810     4.2140 ho         1 NPA       0.418000
@<TRIPOS>BOND
     1     1     2 ar
     2     1     6 ar
     3     1     7 1
     4     2     3 ar
     5     2    15 1
     6     3     4 ar
     7     3     9 1
     8     4     5 ar
     9     4    12 1
    10     5     6 ar
    11     5    16 1
    12     6    17 1
    13     7     8 1
    14     7    18 1
    15     7    19 1
    16     8    13 1
    17     8    14 1
    18     9    10 1
    19     9    11 1
    20    12    20 1
@<TRIPOS>SUBSTRUCTURE
     1 NPA         1 TEMP              0 ****  ****    0 ROOT
