@<TRIPOS>MOLECULE
molecule
   39    39     1     0     0
SMALL
bcc


@<TRIPOS>ATOM
      1 C1           0.0000     0.0000     0.0000 ca         1 NPC      -0.082300
      2 C2           1.3830     0.0000     0.0000 ca         1 NPC      -0.034000
      3 C3           2.0750     0.0000     1.1950 ca         1 NPC      -0.178200
      4 N3           3.5550     0.0000     1.1940 no         1 NPC       0.300200
      5 O3A          4.1630     0.0010     0.1380 o          1 NPC      -0.205000
      6 O3B          4.1660     0.0010     2.2470 o          1 NPC      -0.205000
      7 C4           1.3830    -0.0110     2.3970 ca         1 NPC       0.175100
      8 O4           2.0610    -0.0170     3.5730 oh         1 NPC      -0.478100
      9 C5          -0.0050    -0.0120     2.3950 ca         1 NPC      -0.201000
     10 C6          -0.6930    -0.0060     1.1970 ca         1 NPC      -0.046000
     11 C7          -0.7530     0.0060    -1.3050 c3         1 NPC      -0.114100
     12 C8          -1.0040     1.4280    -1.7340 c          1 NPC       0.649100
     13 O8          -0.6100     2.3470    -1.0460 o          1 NPC      -0.606100
     14 N9          -1.6660     1.6800    -2.8800 ns         1 NPC      -0.578900
     15 C10         -1.9100     3.0640    -3.2970 c3         1 NPC       0.105000
     16 C11         -2.6740     3.0690    -4.6220 c3         1 NPC      -0.101400
     17 C12         -2.9290     4.5140    -5.0570 c3         1 NPC      -0.085400
     18 C13         -3.6930     4.5200    -6.3830 c3         1 NPC      -0.056400
     19 C14         -3.9490     5.9650    -6.8180 c3         1 NPC      -0.209400
     20 C15         -4.7020     5.9710    -8.1230 c          1 NPC       0.920600
     21 O15         -5.0060     4.9170    -8.6560 o          1 NPC      -0.851800
     22 O16         -5.0060     7.0290    -8.6460 o          1 NPC      -0.851800
     23 H2           1.9230     0.0050    -0.9390 ha         1 NPC       0.171000
     24 HO4          1.7310    -0.7080     4.1230 ho         1 NPC       0.425000
     25 H5          -0.5490    -0.0190     3.3320 ha         1 NPC       0.147000
     26 H6          -1.7760    -0.0060     1.1950 ha         1 NPC       0.145000
     27 H71         -0.1680    -0.5010    -2.0620 hc         1 NPC       0.068700
     28 H72         -1.7000    -0.5050    -1.1780 hc         1 NPC       0.068700
     29 HN9         -1.9910     0.9220    -3.4470 hn         1 NPC       0.312500
     30 H101        -0.9640     3.5750    -3.4230 h1         1 NPC       0.053200
     31 H102        -2.4970     3.5700    -2.5400 h1         1 NPC       0.053200
     32 H111        -3.6200     2.5570    -4.4960 hc         1 NPC       0.042700
     33 H112        -2.0880     2.5620    -5.3790 hc         1 NPC       0.042700
     34 H121        -3.5150     5.0200    -4.3000 hc         1 NPC       0.033200
     35 H122        -1.9830     5.0250    -5.1830 hc         1 NPC       0.033200
     36 H131        -4.6400     4.0090    -6.2570 hc         1 NPC       0.045700
     37 H132        -3.1070     4.0140    -7.1400 hc         1 NPC       0.045700
     38 H141        -4.5340     6.4720    -6.0610 hc         1 NPC       0.022200
     39 H142        -3.0020     6.4760    -6.9450 hc         1 NPC       0.022200
@<TRIPOS>BOND
     1     1     2 ar
     2     1    10 ar
     3     1    11 1
     4     2     3 ar
     5     2    23 1
     6     3     4 1
     7     3     7 ar
     8     4     5 1
     9     4     6 1
    10     7     8 1
    11     7     9 ar
    12     8    24 1
    13     9    10 ar
    14     9    25 1
    15    10    26 1
    16    11    12 1
    17    11    27 1
    18    11    28 1
    19    12    13 2
    20    12    14 1
    21    14    15 1
    22    14    29 1
    23    15    16 1
    24    15    30 1
    25    15    31 1
    26    16    17 1
    27    16    32 1
    28    16    33 1
    29    17    18 1
    30    17    34 1
    31    17    35 1
    32    18    19 1
    33    18    36 1
    34    18    37 1
    35    19    20 1
    36    19    38 1
    37    19    39 1
    38    20    21 1
    39    20    22 1
@<TRIPOS>SUBSTRUCTURE
     1 NPC         1 TEMP              0 ****  ****    0 ROOT
