@<TRIPOS>MOLECULE
NPD
   29    30     1     0     0
SMALL
bcc


@<TRIPOS>ATOM
      1 CN         -0.0130   -0.4390   -0.1660 c3        1 NPD     -0.091100
      2 CA          1.4010    0.0310    0.0920 c3        1 NPD     -0.185700
      3 CB          1.7400   -0.0230    1.5810 c3        1 NPD     -0.032100
      4 CG          1.3960    1.2480    2.2790 ca        1 NPD     -0.068300
      5 CD1         0.2820    1.3060    3.0900 ca        1 NPD     -0.128000
      6 CE1        -0.0570    2.4930    3.7780 ca        1 NPD     -0.128000
      7 CZ1         0.7230    3.6140    3.6480 ca        1 NPD     -0.117000
      8 CE2         1.8790    3.5930    2.8200 ca        1 NPD     -0.037000
      9 CZ2         2.6970    4.7480    2.6780 ca        1 NPD     -0.121000
     10 CH2         3.8120    4.7210    1.8790 ca        1 NPD     -0.127000
     11 CZ3         4.1580    3.5370    1.1840 ca        1 NPD     -0.126000
     12 CE3         3.3850    2.4090    1.3030 ca        1 NPD     -0.125000
     13 CD2         2.2230    2.4040    2.1260 ca        1 NPD     -0.031000
     14 C           2.3890   -0.7670   -0.7190 c         1 NPD      0.567900
     15 O           3.6070   -0.6950   -0.5540 o         1 NPD     -0.532100
     16 HCN1       -0.2840   -0.2940   -1.2390 hc        1 NPD      0.041700
     17 HCN2       -0.7260    0.1450    0.4650 hc        1 NPD      0.041700
     18 HCN3       -0.1240   -1.5210    0.0860 hc        1 NPD      0.041700
     19 HA          1.4980    1.1020   -0.2580 hc        1 NPD      0.089700
     20 HB1         2.8390   -0.2290    1.7090 hc        1 NPD      0.062700
     21 HB2         1.1890   -0.8800    2.0530 hc        1 NPD      0.062700
     22 HD11       -0.3600    0.4210    3.2140 ha        1 NPD      0.130000
     23 HE11       -0.9520    2.5010    4.4170 ha        1 NPD      0.132000
     24 HZ11        0.4710    4.5440    4.1790 ha        1 NPD      0.132000
     25 HZ21        2.4160    5.6610    3.2240 ha        1 NPD      0.132000
     26 HH21        4.4470    5.6120    1.7680 ha        1 NPD      0.132000
     27 HZ31        5.0560    3.5340    0.5490 ha        1 NPD      0.135000
     28 HE31        3.6600    1.4900    0.7570 ha        1 NPD      0.151000
     29 HC          1.9460   -1.4200   -1.5050 h4        1 NPD     -0.001800
@<TRIPOS>BOND
     1    1    2 1   
     2    1   16 1   
     3    1   17 1   
     4    1   18 1   
     5    2    3 1   
     6    2   14 1   
     7    2   19 1   
     8    3    4 1   
     9    3   20 1   
    10    3   21 1   
    11    4    5 ar  
    12    4   13 ar  
    13    5    6 ar  
    14    5   22 1   
    15    6    7 ar  
    16    6   23 1   
    17    7    8 ar  
    18    7   24 1   
    19    8    9 ar  
    20    8   13 ar  
    21    9   10 ar  
    22    9   25 1   
    23   10   11 ar  
    24   10   26 1   
    25   11   12 ar  
    26   11   27 1   
    27   12   13 ar  
    28   12   28 1   
    29   14   15 2   
    30   14   29 1   
@<TRIPOS>SUBSTRUCTURE
     1 NPD         1 TEMP              0 ****  ****    0 ROOT
