@<TRIPOS>MOLECULE
molecule
   29    30     1     0     0
SMALL
bcc


@<TRIPOS>ATOM
      1 CN           0.0000     0.0000     0.0000 c3         1 NPD      -0.083100
      2 CA           1.5300     0.0000     0.0000 c3         1 NPD      -0.191700
      3 CB           2.0400     0.0000     1.4410 c3         1 NPD      -0.027100
      4 CG           1.5380     1.2300     2.1520 ca         1 NPD      -0.071300
      5 CD1          0.3490     1.1990     2.8150 ca         1 NPD      -0.123000
      6 CE1         -0.1320     2.3260     3.4770 ca         1 NPD      -0.126000
      7 CZ1          0.5740     3.4900     3.4820 ca         1 NPD      -0.116000
      8 CE2          1.8060     3.5590     2.8110 ca         1 NPD      -0.033000
      9 CZ2          2.5610     4.7440     2.7930 ca         1 NPD      -0.116000
     10 CH2          3.7500     4.7730     2.1310 ca         1 NPD      -0.125000
     11 CZ3          4.2310     3.6470     1.4660 ca         1 NPD      -0.122000
     12 CE3          3.5250     2.4830     1.4620 ca         1 NPD      -0.120000
     13 CD2          2.2960     2.4120     2.1390 ca         1 NPD      -0.029000
     14 C            2.0320    -1.2290    -0.7120 c          1 NPD       0.571900
     15 O            2.7260    -1.1190    -1.6930 o          1 NPD      -0.519100
     16 HCN1        -0.3610     1.0000     0.2060 hc         1 NPD       0.042033
     17 HCN2        -0.3610    -0.3220    -0.9690 hc         1 NPD       0.042033
     18 HCN3        -0.3610    -0.6790     0.7630 hc         1 NPD       0.042033
     19 HA           1.8910     0.8850    -0.5100 hc         1 NPD       0.084700
     20 HB1          3.1230    -0.0000     1.4410 hc         1 NPD       0.053700
     21 HB2          1.6790    -0.8850     1.9520 hc         1 NPD       0.053700
     22 HD11        -0.2320     0.2850     2.8260 ha         1 NPD       0.129000
     23 HE11        -1.0810     2.2750     3.9970 ha         1 NPD       0.129000
     24 HZ11         0.1870     4.3580     4.0020 ha         1 NPD       0.133000
     25 HZ21         2.2000     5.6280     3.3050 ha         1 NPD       0.133000
     26 HH21         4.3310     5.6880     2.1190 ha         1 NPD       0.129000
     27 HZ31         5.1800     3.6980     0.9470 ha         1 NPD       0.130000
     28 HE31         3.9110     1.6140     0.9410 ha         1 NPD       0.137000
     29 HC           1.7680    -2.2130    -0.3430 h4         1 NPD      -0.005800
@<TRIPOS>BOND
     1     1     2 1
     2     1    16 1
     3     1    17 1
     4     1    18 1
     5     2     3 1
     6     2    14 1
     7     2    19 1
     8     3     4 1
     9     3    20 1
    10     3    21 1
    11     4     5 ar
    12     4    13 ar
    13     5     6 ar
    14     5    22 1
    15     6     7 ar
    16     6    23 1
    17     7     8 ar
    18     7    24 1
    19     8     9 ar
    20     8    13 ar
    21     9    10 ar
    22     9    25 1
    23    10    11 ar
    24    10    26 1
    25    11    12 ar
    26    11    27 1
    27    12    13 ar
    28    12    28 1
    29    14    15 2
    30    14    29 1
@<TRIPOS>SUBSTRUCTURE
     1 NPD         1 TEMP              0 ****  ****    0 ROOT
