@<TRIPOS>MOLECULE
molecule
   32    32     1     0     0
SMALL
bcc


@<TRIPOS>ATOM
      1 C1           0.0000     0.0000     0.0000 ca         1 NPE      -0.198200
      2 N1          -0.7390     0.0020    -1.2820 no         1 NPE       0.305200
      3 O1N         -0.1300     0.0020    -2.3370 o          1 NPE      -0.247000
      4 O2N         -1.9570     0.0020    -1.2830 o          1 NPE      -0.247000
      5 C2           1.3820     0.0000     0.0000 ca         1 NPE      -0.068500
      6 C3           2.0750     0.0000     1.1950 ca         1 NPE      -0.137000
      7 C4           1.3830    -0.0000     2.3970 ca         1 NPE       0.222100
      8 C5          -0.0060    -0.0060     2.3950 ca         1 NPE      -0.137000
      9 C6          -0.6930    -0.0000     1.1970 ca         1 NPE      -0.068500
     10 O3P          2.0610    -0.0010     3.5740 os         1 NPE      -0.443500
     11 P            2.2940     1.5400     3.9780 p5         1 NPE       1.082600
     12 O1P          0.9300     2.2110     4.2560 o          1 NPE      -0.794000
     13 O2P          3.0030     2.2740     2.8180 o          1 NPE      -0.794000
     14 C7           3.3300     1.6260     5.4750 c3         1 NPE      -0.243600
     15 C8           3.6560     3.0880     5.7870 c3         1 NPE      -0.053400
     16 C9           4.5260     3.1600     7.0440 c3         1 NPE      -0.061400
     17 C10          4.8500     4.6220     7.3560 c3         1 NPE      -0.180400
     18 C11          5.7070     4.6930     8.5940 c          1 NPE       0.892600
     19 O1           6.0250     3.6780     9.1670 o          1 NPE      -0.874300
     20 O2           6.1170     5.8830     9.0590 o          1 NPE      -0.874300
     21 H2           1.9230     0.0000    -0.9390 ha         1 NPE       0.146000
     22 H3           3.1590     0.0020     1.1940 ha         1 NPE       0.167000
     23 H5          -0.5490    -0.0060     3.3320 ha         1 NPE       0.167000
     24 H6          -1.7770    -0.0050     1.1950 ha         1 NPE       0.146000
     25 H71          4.2500     1.0790     5.3090 hc         1 NPE       0.040200
     26 H72          2.7960     1.1890     6.3100 hc         1 NPE       0.040200
     27 H81          4.1900     3.5250     4.9520 hc         1 NPE       0.046200
     28 H82          2.7350     3.6350     5.9520 hc         1 NPE       0.046200
     29 H91          3.9910     2.7220     7.8780 hc         1 NPE       0.033700
     30 H92          5.4460     2.6130     6.8770 hc         1 NPE       0.033700
     31 H101         3.9290     5.1680     7.5220 hc         1 NPE       0.027700
     32 H102         5.3840     5.0600     6.5210 hc         1 NPE       0.027700
@<TRIPOS>BOND
     1     1     2 1
     2     1     5 ar
     3     1     9 ar
     4     2     3 1
     5     2     4 1
     6     5     6 ar
     7     5    21 1
     8     6     7 ar
     9     6    22 1
    10     7     8 ar
    11     7    10 1
    12     8     9 ar
    13     8    23 1
    14     9    24 1
    15    10    11 1
    16    11    12 1
    17    11    13 1
    18    11    14 1
    19    14    15 1
    20    14    25 1
    21    14    26 1
    22    15    16 1
    23    15    27 1
    24    15    28 1
    25    16    17 1
    26    16    29 1
    27    16    30 1
    28    17    18 1
    29    17    31 1
    30    17    32 1
    31    18    19 1
    32    18    20 1
@<TRIPOS>SUBSTRUCTURE
     1 NPE         1 TEMP              0 ****  ****    0 ROOT
