@<TRIPOS>MOLECULE
NPF
   35    36     1     0     0
SMALL
bcc


@<TRIPOS>ATOM
      1 C1           0.0000     0.0000     0.0000 ca         1 NPF       0.232100
      2 C2           1.3880     0.0000     0.0000 ca         1 NPF      -0.241000
      3 C3           2.0780     0.0000     1.1960 ca         1 NPF       0.001000
      4 C4           1.3870    -0.0020     2.3930 ca         1 NPF      -0.164000
      5 C5           0.0050    -0.0020     2.3970 ca         1 NPF       0.023000
      6 C6          -0.6900     0.0050     1.2030 ca         1 NPF      -0.492200
      7 N6          -2.1700     0.0050     1.2070 no         1 NPF       1.058200
      8 O6A         -2.7760    -0.0010     2.2640 o          1 NPF      -0.451500
      9 O6B         -2.7820     0.0100     0.1540 o          1 NPF      -0.451500
     10 O1'         -0.6800     0.0010    -1.1760 os         1 NPF      -0.220900
     11 C1'          0.2960     0.0020    -2.2190 c3         1 NPF       0.337900
     12 C2'         -0.4070    -0.1290    -3.5710 c3         1 NPF       0.150100
     13 O2'         -1.1680    -1.3390    -3.6000 oh         1 NPF      -0.580800
     14 C3'          0.6490    -0.1610    -4.6830 c3         1 NPF       0.154100
     15 O3'          0.0060    -0.1340    -5.9580 oh         1 NPF      -0.568800
     16 C4'          1.5520     1.0680    -4.5330 c3         1 NPF       0.137100
     17 O4'          0.7940     2.2530    -4.7880 oh         1 NPF      -0.554800
     18 C5'          2.1080     1.1090    -3.1080 c3         1 NPF       0.165100
     19 C6'          3.0390     2.3140    -2.9590 c3         1 NPF       0.002900
     20 O5'          1.0350     1.2210    -2.1750 os         1 NPF      -0.386600
     21 H2           1.9300    -0.0010    -0.9380 ha         1 NPF       0.153000
     22 H3           3.1620    -0.0000     1.1960 ha         1 NPF       0.102000
     23 H4           1.9300    -0.0040     3.3310 ha         1 NPF       0.116000
     24 H5          -0.5340    -0.0010     3.3370 ha         1 NPF       0.132000
     25 H1'          0.9740    -0.8320    -2.0850 h2         1 NPF       0.018700
     26 H2'         -1.0620     0.7200    -3.7210 h1         1 NPF       0.053700
     27 HO'2        -2.0580    -1.1450    -3.8410 ho         1 NPF       0.410000
     28 H3'          1.2450    -1.0610    -4.5900 h1         1 NPF       0.011700
     29 HO'3         0.3350    -0.8390    -6.4910 ho         1 NPF       0.392000
     30 H4'          2.3730     1.0000    -5.2370 h1         1 NPF       0.009700
     31 HO'4         1.0600     2.6240    -5.6130 ho         1 NPF       0.392000
     32 H5'          2.6590     0.1970    -2.9120 h1         1 NPF       0.008700
     33 H6'1         3.6280     2.2070    -2.0560 hc         1 NPF       0.015700
     34 H6'2         2.4490     3.2210    -2.9010 hc         1 NPF       0.015700
     35 H6'3         3.7000     2.3680    -3.8160 hc         1 NPF       0.015700
@<TRIPOS>BOND
     1     1     2 ar  
     2     1     6 ar  
     3     1    10 1   
     4     2     3 ar  
     5     2    21 1   
     6     3     4 ar  
     7     3    22 1   
     8     4     5 ar  
     9     4    23 1   
    10     5     6 ar  
    11     5    24 1   
    12     6     7 1   
    13     7     8 1   
    14     7     9 1   
    15    10    11 1   
    16    11    12 1   
    17    11    20 1   
    18    11    25 1   
    19    12    13 1   
    20    12    14 1   
    21    12    26 1   
    22    13    27 1   
    23    14    15 1   
    24    14    16 1   
    25    14    28 1   
    26    15    29 1   
    27    16    17 1   
    28    16    18 1   
    29    16    30 1   
    30    17    31 1   
    31    18    19 1   
    32    18    20 1   
    33    18    32 1   
    34    19    33 1   
    35    19    34 1   
    36    19    35 1   
@<TRIPOS>SUBSTRUCTURE
     1 NPF         1 TEMP              0 ****  ****    0 ROOT
