@<TRIPOS>MOLECULE
NPG
   29    29     1     0     0
SMALL
bcc


@<TRIPOS>ATOM
      1 O61          0.0000     0.0000     0.0000 o          1 NPG      -0.923800
      2 O62          1.8790     0.0010    -1.1620 o          1 NPG      -0.923800
      3 C6           1.2080     0.0000     0.0000 c          1 NPG       0.982600
      4 C5           1.9590     0.0000     1.3050 c3         1 NPG      -0.117400
      5 C4           0.9670     0.0000     2.4680 c3         1 NPG      -0.083400
      6 O31          2.9310    -0.0000     3.7730 o          1 NPG      -0.681100
      7 C3           1.7190    -0.0000     3.7730 c          1 NPG       0.567100
      8 N1           1.0460    -0.0000     4.9400 ns         1 NPG      -0.166900
      9 C2           2.0290     1.4200     6.6430 c          1 NPG       0.985600
     10 C1           1.7760    -0.0000     6.2080 c3         1 NPG      -0.053000
     11 CG           0.9620    -0.7100     7.2580 ca         1 NPG      -0.020300
     12 CD1         -0.4170    -0.6860     7.1950 ca         1 NPG      -0.098000
     13 CD2          1.5960    -1.3810     8.2870 ca         1 NPG      -0.098000
     14 CE1         -1.1650    -1.3410     8.1560 ca         1 NPG      -0.118000
     15 CE2          0.8490    -2.0330     9.2500 ca         1 NPG      -0.118000
     16 CZ          -0.5310    -2.0130     9.1850 ca         1 NPG      -0.150000
     17 H51          2.5830     0.8840     1.3620 hc         1 NPG       0.019200
     18 H52          2.5820    -0.8840     1.3620 hc         1 NPG       0.019200
     19 H41          0.3430    -0.8840     2.4110 hc         1 NPG       0.027700
     20 H42          0.3440     0.8850     2.4110 hc         1 NPG       0.027700
     21 HN1          0.0460     0.0070     4.9390 hn         1 NPG       0.167500
     22 H1           2.7230    -0.5120     6.0790 h1         1 NPG       0.060700
     23 HD1         -0.9130    -0.1590     6.3890 ha         1 NPG       0.118000
     24 HD2          2.6780    -1.3970     8.3380 ha         1 NPG       0.118000
     25 HE1         -2.2470    -1.3230     8.1060 ha         1 NPG       0.081500
     26 HE2          1.3460    -2.5590    10.0560 ha         1 NPG       0.081500
     27 HZ          -1.1170    -2.5250     9.9390 ha         1 NPG       0.078000
     28 O11          3.0090     1.6870     7.2960 o          1 NPG      -0.889800
     29 O12          1.1640     2.3880     6.3050 o          1 NPG      -0.889800
@<TRIPOS>BOND
     1     1     3 1   
     2     2     3 1   
     3     3     4 1   
     4     4     5 1   
     5     4    17 1   
     6     4    18 1   
     7     5     7 1   
     8     5    19 1   
     9     5    20 1   
    10     6     7 2   
    11     7     8 1   
    12     8    10 1   
    13     8    21 1   
    14     9    10 1   
    15     9    28 1   
    16     9    29 1   
    17    10    11 1   
    18    10    22 1   
    19    11    12 ar  
    20    11    13 ar  
    21    12    14 ar  
    22    12    23 1   
    23    13    15 ar  
    24    13    24 1   
    25    14    16 ar  
    26    14    25 1   
    27    15    16 ar  
    28    15    26 1   
    29    16    27 1   
@<TRIPOS>SUBSTRUCTURE
     1 NPG         1 TEMP              0 ****  ****    0 ROOT
