@<TRIPOS>MOLECULE
NPK
   55    58     1     0     0
SMALL
bcc


@<TRIPOS>ATOM
      1 N1           0.0000     0.0000     0.0000 n          1 NPK      -0.119400
      2 S1          -0.8190    -1.7860     3.3140 ss         1 NPK      -0.375200
      3 C2           0.9310    -1.2580     3.1080 c3         1 NPK       0.065400
      4 N2           1.8820     0.0000     1.2260 ns         1 NPK      -0.195900
      5 C3           1.3390     0.0000     0.0000 c          1 NPK       0.610500
      6 O3           2.0030    -0.0000    -1.0180 o          1 NPK      -0.703500
      7 C4           0.8040    -0.0000     2.2270 c3         1 NPK      -0.006300
      8 C5          -0.4810    -0.0000     1.3910 c3         1 NPK       0.024700
      9 C6          -1.3380    -1.2580     1.6310 c3         1 NPK       0.079700
     10 C7           1.5560    -0.9130     4.4610 c3         1 NPK      -0.010400
     11 C8           1.6620    -2.1790     5.3130 c3         1 NPK      -0.045400
     12 C9           2.2870    -1.8340     6.6660 c3         1 NPK      -0.013400
     13 C10          2.3920    -3.1000     7.5170 c3         1 NPK      -0.134400
     14 C11          3.0080    -2.7600     8.8510 c          1 NPK       0.980600
     15 O11          3.3290    -1.6210     9.0940 o          1 NPK      -0.904800
     16 O12          3.2000    -3.7220     9.7670 o          1 NPK      -0.904800
     17 C30         -0.7820     0.0050    -1.0980 c          1 NPK       0.724100
     18 O31         -1.9910     0.0060    -0.9820 o          1 NPK      -0.628000
     19 O32         -0.2230     0.0100    -2.3230 os         1 NPK      -0.375900
     20 C33         -1.1260     0.0160    -3.4590 c3         1 NPK       0.198400
     21 C34         -1.4440    -1.4240    -3.8650 c3         1 NPK      -0.009100
     22 C35         -0.4750     0.7320    -4.6140 ca         1 NPK       0.003700
     23 C36          0.9010     0.8650    -4.6560 ca         1 NPK      -0.093000
     24 C37          1.5020     1.5220    -5.7180 ca         1 NPK       0.120100
     25 C38          0.7170     2.0460    -6.7420 ca         1 NPK       0.028100
     26 C39         -0.6610     1.9080    -6.6940 ca         1 NPK      -0.006000
     27 C40         -1.2540     1.2470    -5.6340 ca         1 NPK      -0.454200
     28 N40         -2.7260     1.0970    -5.5870 no         1 NPK       1.054200
     29 O44          2.8120     1.7850    -5.9940 os         1 NPK      -0.301900
     30 C45          2.8510     2.1160    -7.3940 c3         1 NPK       0.431200
     31 O46          1.5360     2.6380    -7.6590 os         1 NPK      -0.310900
     32 O54         -3.4060     1.4730    -6.5240 o          1 NPK      -0.449500
     33 O55         -3.2550     0.5970    -4.6120 o          1 NPK      -0.449500
     34 H2           1.5020    -2.0240     2.5980 h1         1 NPK       0.064700
     35 HN2          2.8630     0.0000     1.4270 hn         1 NPK       0.223500
     36 H4           0.8570     0.8940     2.8360 h1         1 NPK       0.060700
     37 H5          -1.0590     0.8940     1.5890 h1         1 NPK       0.061700
     38 H6          -2.3930    -1.0100     1.6170 h1         1 NPK       0.063200
     39 H6A         -1.1060    -2.0240     0.9020 h1         1 NPK       0.063200
     40 H7           0.9350    -0.1860     4.9700 hc         1 NPK       0.026200
     41 H7A          2.5450    -0.4980     4.3070 hc         1 NPK       0.026200
     42 H8           0.6730    -2.5940     5.4670 hc         1 NPK       0.017200
     43 H8A          2.2830    -2.9060     4.8030 hc         1 NPK       0.017200
     44 H9           1.6660    -1.1070     7.1750 hc         1 NPK       0.021200
     45 H9A          3.2750    -1.4190     6.5110 hc         1 NPK       0.021200
     46 H10          3.0140    -3.8270     7.0080 hc         1 NPK       0.006200
     47 H10A         1.4040    -3.5150     7.6720 hc         1 NPK       0.006200
     48 H33         -2.0430     0.5260    -3.1890 h1         1 NPK       0.105700
     49 H34         -2.3630    -1.7410    -3.3860 hc         1 NPK       0.017033
     50 H34A        -1.5620    -1.4790    -4.9410 hc         1 NPK       0.017033
     51 H34B        -0.6340    -2.0740    -3.5580 hc         1 NPK       0.017033
     52 H36          1.5080     0.4710    -3.8500 ha         1 NPK       0.162000
     53 H39         -1.2730     2.3110    -7.4910 ha         1 NPK       0.138000
     54 H45          3.5940     2.8840    -7.5700 h2         1 NPK       0.018200
     55 H45A         3.0150     1.2190    -7.9800 h2         1 NPK       0.018200
@<TRIPOS>BOND
     1     1     5 1   
     2     1     8 1   
     3     1    17 1   
     4     2     3 1   
     5     2     9 1   
     6     3     7 1   
     7     3    10 1   
     8     3    34 1   
     9     4     5 1   
    10     4     7 1   
    11     4    35 1   
    12     5     6 2   
    13     7     8 1   
    14     7    36 1   
    15     8     9 1   
    16     8    37 1   
    17     9    38 1   
    18     9    39 1   
    19    10    11 1   
    20    10    40 1   
    21    10    41 1   
    22    11    12 1   
    23    11    42 1   
    24    11    43 1   
    25    12    13 1   
    26    12    44 1   
    27    12    45 1   
    28    13    14 1   
    29    13    46 1   
    30    13    47 1   
    31    14    15 1   
    32    14    16 1   
    33    17    18 2   
    34    17    19 1   
    35    19    20 1   
    36    20    21 1   
    37    20    22 1   
    38    20    48 1   
    39    21    49 1   
    40    21    50 1   
    41    21    51 1   
    42    22    23 ar  
    43    22    27 ar  
    44    23    24 ar  
    45    23    52 1   
    46    24    25 ar  
    47    24    29 1   
    48    25    26 ar  
    49    25    31 1   
    50    26    27 ar  
    51    26    53 1   
    52    27    28 1   
    53    28    32 1   
    54    28    33 1   
    55    29    30 1   
    56    30    31 1   
    57    30    54 1   
    58    30    55 1   
@<TRIPOS>SUBSTRUCTURE
     1 NPK         1 TEMP              0 ****  ****    0 ROOT
