@<TRIPOS>MOLECULE
NPL
   31    31     1     0     0
SMALL
bcc


@<TRIPOS>ATOM
      1 N1          0.0160    0.0080    0.2030 nh        1 NPL     -0.300200
      2 C1         -0.7890   -0.2510   -0.9710 c3        1 NPL      0.195100
      3 C2          1.4100    0.0490    0.0660 c2        1 NPL     -0.014200
      4 C2A         2.0550   -0.1290   -1.2620 c3        1 NPL     -0.047900
      5 C3          2.1630    0.2320    1.2200 ce        1 NPL      0.045100
      6 O3          3.5420    0.1870    1.0920 oh        1 NPL     -0.521100
      7 C4          1.5480    0.4140    2.5030 ce        1 NPL     -0.158200
      8 C4A         2.4470    0.5550    3.7010 c3        1 NPL      0.189000
      9 N4          3.2950   -0.5760    3.9950 n3        1 NPL     -0.909800
     10 C5          0.1710    0.4430    2.5670 cf        1 NPL     -0.057900
     11 C5A        -0.5800    0.6680    3.8520 c3        1 NPL      0.235600
     12 O4P        -1.8650    1.1390    3.6690 os        1 NPL     -0.566200
     13 P          -3.1460    0.1120    3.9980 p5        1 NPL      1.433800
     14 O1P        -4.1980    0.9090    4.6520 o         1 NPL     -0.836000
     15 O2P        -2.5350   -1.1110    4.5640 o         1 NPL     -0.836000
     16 O3P        -3.5260   -0.1510    2.4420 oh        1 NPL     -0.792400
     17 C6         -0.6080    0.1980    1.3760 ch        1 NPL     -0.153300
     18 H11        -1.8670   -0.3230   -0.6590 h1        1 NPL      0.056367
     19 H12        -0.6660    0.5840   -1.7100 h1        1 NPL      0.056367
     20 H13        -0.4670   -1.2140   -1.4480 h1        1 NPL      0.056367
     21 H21         3.1550    0.0520   -1.1790 hc        1 NPL      0.048033
     22 H22         1.6290    0.5860   -2.0110 hc        1 NPL      0.048033
     23 H23         1.8940   -1.1710   -1.6370 hc        1 NPL      0.048033
     24 HO3         3.8940    0.9200    1.6200 ho        1 NPL      0.416000
     25 H41         1.8310    0.7700    4.6200 h1        1 NPL      0.057700
     26 H42         3.1180    1.4490    3.5340 h1        1 NPL      0.057700
     27 HN41        3.7640   -0.8930    3.1670 hn        1 NPL      0.351300
     28 HN42        2.7510   -1.3350    4.3580 hn        1 NPL      0.351300
     29 H51        -0.0220    1.4520    4.4490 h1        1 NPL      0.046700
     30 H52        -0.5900   -0.3080    4.4270 h1        1 NPL      0.046700
     31 H6         -2.7780   -0.0730    1.8520 ho        1 NPL      0.453000
@<TRIPOS>BOND
     1    1    2 1   
     2    1    3 1   
     3    1   17 3   
     4    2   18 1   
     5    2   19 1   
     6    2   20 1   
     7    3    4 1   
     8    3    5 2   
     9    4   21 1   
    10    4   22 1   
    11    4   23 1   
    12    5    6 1   
    13    5    7 1   
    14    6   24 1   
    15    7    8 1   
    16    7   10 2   
    17    8    9 1   
    18    8   25 1   
    19    8   26 1   
    20    9   27 1   
    21    9   28 1   
    22   10   11 1   
    23   10   17 1   
    24   11   12 1   
    25   11   29 1   
    26   11   30 1   
    27   12   13 1   
    28   13   14 1   
    29   13   15 1   
    30   13   16 1   
    31   16   31 1   
@<TRIPOS>SUBSTRUCTURE
     1 NPL         1 TEMP              0 ****  ****    0 ROOT
