@<TRIPOS>MOLECULE
NPM
   49    54     1     0     0
SMALL
bcc


@<TRIPOS>ATOM
      1 N11          0.0000     0.0000     0.0000 n2         1 NPM      -0.039000
      2 N12         -2.7850    -0.0000    -0.0630 n2         1 NPM       0.110000
      3 N13        -10.1890    -3.7630    -4.0630 n2         1 NPM       0.110000
      4 N14        -11.0400    -5.6370    -5.9380 n2         1 NPM      -0.039000
      5 C1A          1.3160     0.0000     0.0000 c2         1 NPM      -0.074500
      6 C1B          2.0270     0.0000     1.1880 c2         1 NPM      -0.126000
      7 C1C          1.3410     0.0000     2.3920 c2         1 NPM      -0.090500
      8 C1D         -0.0430     0.0000     2.3660 c2         1 NPM      -0.070000
      9 C1E         -0.6970     0.0000     1.1320 c3         1 NPM      -0.150500
     10 C1F         -2.1700     0.0000     1.0850 c2         1 NPM      -0.374500
     11 C1G         -4.1520    -0.0000    -0.1070 ca         1 NPM      -0.065500
     12 C1H         -4.8260     0.8540    -0.9830 ca         1 NPM      -0.075750
     13 C1I         -6.2050     0.8480    -1.0220 ca         1 NPM      -0.098750
     14 C1J         -6.9200    -0.0000    -0.1950 ca         1 NPM      -0.070500
     15 C1K         -6.2580    -0.8490     0.6750 ca         1 NPM      -0.098750
     16 C1L         -4.8810    -0.8580     0.7200 ca         1 NPM      -0.075750
     17 C1M         -8.4270     0.0010    -0.2430 c3         1 NPM      -0.008000
     18 C1N         -8.8970    -1.0040    -1.2630 ca         1 NPM      -0.070500
     19 C1O         -9.1390    -2.3120    -0.8800 ca         1 NPM      -0.098750
     20 C1P         -9.5700    -3.2370    -1.8090 ca         1 NPM      -0.075750
     21 C1Q         -9.7620    -2.8510    -3.1370 ca         1 NPM      -0.065500
     22 C1R         -9.5150    -1.5290    -3.5150 ca         1 NPM      -0.075750
     23 C1S         -9.0910    -0.6130    -2.5760 ca         1 NPM      -0.098750
     24 C1T        -11.1320    -3.4450    -4.9040 c2         1 NPM      -0.374500
     25 C1U        -11.5920    -4.4280    -5.9010 c3         1 NPM      -0.150500
     26 C1V        -12.6020    -4.0820    -6.7990 c2         1 NPM      -0.070000
     27 C1W        -13.0230    -5.0160    -7.7300 c2         1 NPM      -0.090500
     28 C1X        -12.4210    -6.2660    -7.7330 c2         1 NPM      -0.126000
     29 C1Y        -11.4230    -6.5420    -6.8130 c2         1 NPM      -0.074500
     30 H1A          1.8500    -0.0000    -0.9430 h4         1 NPM       0.120500
     31 H1B          3.1110    -0.0000     1.1760 ha         1 NPM       0.113500
     32 H1C          1.8770     0.0000     3.3340 ha         1 NPM       0.113500
     33 H1D         -0.6100     0.0000     3.2880 ha         1 NPM       0.129000
     34 H1F         -1.5530     0.8750     0.9210 DU         1 NPM       0.316500
     35 H1H         -4.2670     1.5180    -1.6310 ha         1 NPM       0.116250
     36 H1I         -6.7290     1.5090    -1.7010 ha         1 NPM       0.107500
     37 H1K         -6.8250    -1.5120     1.3180 ha         1 NPM       0.107500
     38 H1L         -4.3650    -1.5230     1.4030 ha         1 NPM       0.116250
     39 H1M1        -8.8190    -0.2630     0.7320 hc         1 NPM       0.062500
     40 H1M2        -8.7790     0.9870    -0.5190 hc         1 NPM       0.062500
     41 H1O         -8.9900    -2.6100     0.1510 ha         1 NPM       0.107500
     42 H1P         -9.7590    -4.2600    -1.5080 ha         1 NPM       0.116250
     43 H1R         -9.6660    -1.2210    -4.5430 ha         1 NPM       0.116250
     44 H1S         -8.8990     0.4120    -2.8680 ha         1 NPM       0.107500
     45 H1T        -10.6010    -3.6840    -5.8170 DU         1 NPM       0.316500
     46 H1V        -13.0500    -3.0970    -6.7680 ha         1 NPM       0.129000
     47 H1W        -13.8050    -4.7760    -8.4400 ha         1 NPM       0.113500
     48 H1X        -12.7280    -7.0190    -8.4490 ha         1 NPM       0.113500
     49 H1Y        -10.9520    -7.5170    -6.8140 h4         1 NPM       0.120500
@<TRIPOS>BOND
     1     1     5 1   
     2     1     9 1   
     3     2    10 1   
     4     2    11 1   
     5     3    21 1   
     6     3    24 1   
     7     4    25 1   
     8     4    29 1   
     9     5     6 1   
    10     5    30 1   
    11     6     7 1   
    12     6    31 1   
    13     7     8 1   
    14     7    32 1   
    15     8     9 1   
    16     8    33 1   
    17     9    10 1   
    18     9    34 1   
    19    10    34 1   
    20    11    12 1   
    21    11    16 1   
    22    12    13 1   
    23    12    35 1   
    24    13    14 1   
    25    13    36 1   
    26    14    15 1   
    27    14    17 1   
    28    15    16 1   
    29    15    37 1   
    30    16    38 1   
    31    17    18 1   
    32    17    39 1   
    33    17    40 1   
    34    18    19 1   
    35    18    23 1   
    36    19    20 1   
    37    19    41 1   
    38    20    21 1   
    39    20    42 1   
    40    21    22 1   
    41    22    23 1   
    42    22    43 1   
    43    23    44 1   
    44    24    25 1   
    45    24    45 1   
    46    25    26 1   
    47    25    45 1   
    48    26    27 1   
    49    26    46 1   
    50    27    28 1   
    51    27    47 1   
    52    28    29 1   
    53    28    48 1   
    54    29    49 1   
@<TRIPOS>SUBSTRUCTURE
     1 NPM         1 TEMP              0 ****  ****    0 ROOT
