@<TRIPOS>MOLECULE
molecule
   49    52     1     0     0
SMALL
bcc


@<TRIPOS>ATOM
      1 N11          0.0000     0.0000     0.0000 nb         1 NPM      -0.644500
      2 N12         -2.7850    -0.0000    -0.0630 ne         1 NPM      -0.529100
      3 N13        -10.1890    -3.7630    -4.0630 ne         1 NPM      -0.529100
      4 N14        -11.0400    -5.6370    -5.9380 nb         1 NPM      -0.644500
      5 C1A          1.3160     0.0000     0.0000 ca         1 NPM       0.417200
      6 C1B          2.0270     0.0000     1.1880 ca         1 NPM      -0.246300
      7 C1C          1.3410     0.0000     2.3920 ca         1 NPM      -0.098000
      8 C1D         -0.0430     0.0000     2.3660 ca         1 NPM      -0.232300
      9 C1E         -0.6970     0.0000     1.1320 ca         1 NPM       0.380000
     10 C1F         -2.1700     0.0000     1.0850 cf         1 NPM       0.365200
     11 C1G         -4.1520    -0.0000    -0.1070 ca         1 NPM       0.121400
     12 C1H         -4.8260     0.8540    -0.9830 ca         1 NPM      -0.127500
     13 C1I         -6.2050     0.8480    -1.0220 ca         1 NPM      -0.114750
     14 C1J         -6.9200    -0.0000    -0.1950 ca         1 NPM      -0.082300
     15 C1K         -6.2580    -0.8490     0.6750 ca         1 NPM      -0.114750
     16 C1L         -4.8810    -0.8580     0.7200 ca         1 NPM      -0.127500
     17 C1M         -8.4270     0.0010    -0.2430 c3         1 NPM       0.011200
     18 C1N         -8.8970    -1.0040    -1.2630 ca         1 NPM      -0.082300
     19 C1O         -9.1390    -2.3120    -0.8800 ca         1 NPM      -0.114750
     20 C1P         -9.5700    -3.2370    -1.8090 ca         1 NPM      -0.127500
     21 C1Q         -9.7620    -2.8510    -3.1370 ca         1 NPM       0.121400
     22 C1R         -9.5150    -1.5290    -3.5150 ca         1 NPM      -0.127500
     23 C1S         -9.0910    -0.6130    -2.5760 ca         1 NPM      -0.114750
     24 C1T        -11.1320    -3.4450    -4.9040 cf         1 NPM       0.365200
     25 C1U        -11.5920    -4.4280    -5.9010 ca         1 NPM       0.380000
     26 C1V        -12.6020    -4.0820    -6.7990 ca         1 NPM      -0.232300
     27 C1W        -13.0230    -5.0160    -7.7300 ca         1 NPM      -0.098000
     28 C1X        -12.4210    -6.2660    -7.7330 ca         1 NPM      -0.246300
     29 C1Y        -11.4230    -6.5420    -6.8130 ca         1 NPM       0.417200
     30 H1A          1.8500    -0.0000    -0.9430 h4         1 NPM       0.027100
     31 H1B          3.1110    -0.0000     1.1760 ha         1 NPM       0.139000
     32 H1C          1.8770     0.0000     3.3340 ha         1 NPM       0.139000
     33 H1D         -0.6100     0.0000     3.2880 ha         1 NPM       0.139000
     34 H1F         -2.7420     0.0010     2.0060 h4         1 NPM      -0.014200
     35 H1H         -4.2670     1.5180    -1.6310 ha         1 NPM       0.140000
     36 H1I         -6.7290     1.5090    -1.7010 ha         1 NPM       0.131250
     37 H1K         -6.8250    -1.5120     1.3180 ha         1 NPM       0.131250
     38 H1L         -4.3650    -1.5230     1.4030 ha         1 NPM       0.140000
     39 H1M1        -8.7790     0.9870    -0.5190 hc         1 NPM       0.054700
     40 H1M2        -8.8190    -0.2630     0.7320 hc         1 NPM       0.054700
     41 H1O         -8.9900    -2.6100     0.1510 ha         1 NPM       0.131250
     42 H1P         -9.7590    -4.2600    -1.5080 ha         1 NPM       0.140000
     43 H1R         -9.6660    -1.2210    -4.5430 ha         1 NPM       0.140000
     44 H1S         -8.8990     0.4120    -2.8680 ha         1 NPM       0.131250
     45 H1T        -11.5770    -2.4580    -4.8700 h4         1 NPM      -0.014200
     46 H1V        -13.0500    -3.0970    -6.7680 ha         1 NPM       0.139000
     47 H1W        -13.8050    -4.7760    -8.4400 ha         1 NPM       0.139000
     48 H1X        -12.7280    -7.0190    -8.4490 ha         1 NPM       0.139000
     49 H1Y        -10.9520    -7.5170    -6.8140 h4         1 NPM       0.027100
@<TRIPOS>BOND
     1     1     5 ar
     2     1     9 ar
     3     2    10 2
     4     2    11 1
     5     3    21 1
     6     3    24 2
     7     4    25 ar
     8     4    29 ar
     9     5     6 ar
    10     5    30 1
    11     6     7 ar
    12     6    31 1
    13     7     8 ar
    14     7    32 1
    15     8     9 ar
    16     8    33 1
    17     9    10 1
    18    10    34 1
    19    11    12 ar
    20    11    16 ar
    21    12    13 ar
    22    12    35 1
    23    13    14 ar
    24    13    36 1
    25    14    15 ar
    26    14    17 1
    27    15    16 ar
    28    15    37 1
    29    16    38 1
    30    17    18 1
    31    17    39 1
    32    17    40 1
    33    18    19 ar
    34    18    23 ar
    35    19    20 ar
    36    19    41 1
    37    20    21 ar
    38    20    42 1
    39    21    22 ar
    40    22    23 ar
    41    22    43 1
    42    23    44 1
    43    24    25 1
    44    24    45 1
    45    25    26 ar
    46    26    27 ar
    47    26    46 1
    48    27    28 ar
    49    27    47 1
    50    28    29 ar
    51    28    48 1
    52    29    49 1
@<TRIPOS>SUBSTRUCTURE
     1 NPM         1 TEMP              0 ****  ****    0 ROOT
