@<TRIPOS>MOLECULE
NPN
   12    11     1     0     0
SMALL
bcc


@<TRIPOS>ATOM
      1 C          -1.0360   -0.0050   -2.3380 c1        1 NPN      0.431800
      2 N          -0.5180   -0.0140   -1.2770 n1        1 NPN     -0.848300
      3 C1          0.0880   -0.0250   -0.0100 c3        1 NPN      0.273100
      4 C2          1.6200    0.0010   -0.0320 c3        1 NPN     -0.096400
      5 C3          2.1520   -0.0150    1.3770 c3        1 NPN     -0.096100
      6 H11        -0.2510   -0.9530    0.5390 h1        1 NPN      0.055700
      7 H12        -0.2810    0.8730    0.5700 h1        1 NPN      0.055700
      8 H21         2.0100   -0.8870   -0.5950 hc        1 NPN      0.053700
      9 H22         1.9800    0.9200   -0.5640 hc        1 NPN      0.053700
     10 H31         1.8210   -0.9350    1.9170 hc        1 NPN      0.039033
     11 H32         1.7910    0.8750    1.9480 hc        1 NPN      0.039033
     12 H33         3.2680    0.0040    1.3640 hc        1 NPN      0.039033
@<TRIPOS>BOND
     1    1    2 3   
     2    2    3 1   
     3    3    4 1   
     4    3    6 1   
     5    3    7 1   
     6    4    5 1   
     7    4    8 1   
     8    4    9 1   
     9    5   10 1   
    10    5   11 1   
    11    5   12 1   
@<TRIPOS>SUBSTRUCTURE
     1 NPN         1 TEMP              0 ****  ****    0 ROOT
