@<TRIPOS>MOLECULE
molecule
   15    15     1     0     0
SMALL
bcc


@<TRIPOS>ATOM
      1 C1           0.0000     0.0000     0.0000 ca         1 NPO      -0.221200
      2 C2           1.4080     0.0000     0.0000 ca         1 NPO      -0.029000
      3 C3           2.0860     0.0000     1.1830 ca         1 NPO      -0.178000
      4 C4           1.3890    -0.0010     2.3900 ca         1 NPO       0.173100
      5 C5          -0.0040    -0.0070     2.3970 ca         1 NPO      -0.178000
      6 C6          -0.6970    -0.0010     1.2220 ca         1 NPO      -0.029000
      7 OH           2.0710    -0.0020     3.5610 oh         1 NPO      -0.517100
      8 N1          -0.6730     0.0000    -1.1590 no         1 NPO       0.331200
      9 O2          -1.8900    -0.0000    -1.1560 o          1 NPO      -0.225000
     10 O3          -0.0670     0.0010    -2.2160 o          1 NPO      -0.225000
     11 H2           1.9510     0.0010    -0.9370 ha         1 NPO       0.174000
     12 H3           3.1690     0.0020     1.1850 ha         1 NPO       0.158000
     13 H5          -0.5390    -0.0070     3.3390 ha         1 NPO       0.158000
     14 H6          -1.7800    -0.0030     1.2300 ha         1 NPO       0.174000
     15 HO           2.2260     0.8870     3.8350 ho         1 NPO       0.436000
@<TRIPOS>BOND
     1     1     2 ar
     2     1     6 ar
     3     1     8 1
     4     2     3 ar
     5     2    11 1
     6     3     4 ar
     7     3    12 1
     8     4     5 ar
     9     4     7 1
    10     5     6 ar
    11     5    13 1
    12     6    14 1
    13     7    15 1
    14     8     9 1
    15     8    10 1
@<TRIPOS>SUBSTRUCTURE
     1 NPO         1 TEMP              0 ****  ****    0 ROOT
