@<TRIPOS>MOLECULE
molecule
   56    57     1     0     0
SMALL
bcc


@<TRIPOS>ATOM
      1 N1           0.0000     0.0000     0.0000 n3         1 NPP      -0.404400
      2 O1          -0.4520     0.3540    -1.3460 o          1 NPP      -0.740000
      3 C2           1.4420     0.0000     0.0000 c3         1 NPP       0.196200
      4 CM1          2.0060     1.1750    -0.8090 c3         1 NPP      -0.083600
      5 CM2          1.9160    -1.2940    -0.7060 c3         1 NPP      -0.083600
      6 C3           2.0610     0.0000     1.3950 c3         1 NPP      -0.091400
      7 C4           1.4460     1.1100     2.2470 c3         1 NPP       0.213500
      8 C5          -0.0610     0.8610     2.3340 c3         1 NPP      -0.091400
      9 C6          -0.6780     0.8600     0.9380 c3         1 NPP       0.196200
     10 CM3         -2.1320     0.3480     1.0860 c3         1 NPP      -0.083600
     11 CM4         -0.7690     2.3000     0.4190 c3         1 NPP      -0.083600
     12 N2           2.0240     1.0650     3.5950 nu         1 NPP      -0.740600
     13 C7           2.0520     2.2170     4.3840 ca         1 NPP       0.319600
     14 C8           2.4870     2.1480     5.7020 ca         1 NPP      -0.283200
     15 N3           2.9250     0.8540     6.2690 no         1 NPP       0.303200
     16 O2           2.3400    -0.1720     5.9680 o          1 NPP      -0.198500
     17 O3           3.8700     0.8130     7.0360 o          1 NPP      -0.198500
     18 C9           2.5190     3.2900     6.4800 ca         1 NPP       0.071000
     19 C10          2.1110     4.5000     5.9550 ca         1 NPP      -0.293200
     20 N4           2.1420     5.7180     6.7950 no         1 NPP       0.306200
     21 O4           3.0510     5.8890     7.5870 o          1 NPP      -0.216000
     22 O5           1.2590     6.5520     6.6930 o          1 NPP      -0.216000
     23 C11          1.6700     4.5740     4.6380 ca         1 NPP       0.302600
     24 C12          1.6410     3.4320     3.8520 ca         1 NPP      -0.305000
     25 N5           1.2560     5.7990     4.1090 nu         1 NPP      -0.821600
     26 C13          0.6720     5.8560     2.7660 c3         1 NPP       0.219800
     27 C14          0.3080     7.3040     2.4290 c3         1 NPP       0.074800
     28 N6          -0.2770     7.3610     1.0830 nz         1 NPP      -0.806600
     29 HM11         3.0500     0.9910    -1.0350 hc         1 NPP       0.022700
     30 HM12         1.4500     1.2780    -1.7330 hc         1 NPP       0.022700
     31 HM13         1.9180     2.0870    -0.2310 hc         1 NPP       0.022700
     32 HM21         2.9910    -1.3860    -0.6070 hc         1 NPP       0.022700
     33 HM22         1.6520    -1.2500    -1.7560 hc         1 NPP       0.022700
     34 HM23         1.4370    -2.1510    -0.2490 hc         1 NPP       0.022700
     35 H31          1.8750    -0.9570     1.8680 hc         1 NPP       0.039200
     36 H32          3.1280     0.1630     1.3120 hc         1 NPP       0.039200
     37 H4           1.6350     2.0740     1.7890 h1         1 NPP       0.053700
     38 H51         -0.2370    -0.0990     2.8030 hc         1 NPP       0.039200
     39 H52         -0.5180     1.6440     2.9260 hc         1 NPP       0.039200
     40 HM31        -2.6280     0.8940     1.8790 hc         1 NPP       0.022700
     41 HM32        -2.6640     0.4990     0.1550 hc         1 NPP       0.022700
     42 HM33        -2.1200    -0.7080     1.3280 hc         1 NPP       0.022700
     43 HM41        -1.1570     2.2960    -0.5920 hc         1 NPP       0.022700
     44 HM42        -1.4310     2.8720     1.0570 hc         1 NPP       0.022700
     45 HM43         0.2170     2.7490     0.4260 hc         1 NPP       0.022700
     46 HN2          2.4180     0.2120     3.9410 hn         1 NPP       0.474800
     47 H9           2.8580     3.2340     7.5070 ha         1 NPP       0.184000
     48 H12          1.2980     3.4870     2.8260 ha         1 NPP       0.166000
     49 HN5          1.4010     6.6430     4.6270 hn         1 NPP       0.470800
     50 H131         1.3910     5.4870     2.0440 h1         1 NPP       0.070200
     51 H132        -0.2200     5.2430     2.7330 h1         1 NPP       0.070200
     52 H141        -0.4100     7.6730     3.1520 hx         1 NPP       0.116700
     53 H142         1.2010     7.9180     2.4610 hx         1 NPP       0.116700
     54 HN61         0.3720     6.9860     0.4210 hn         1 NPP       0.462800
     55 HN62        -0.4820     8.3120     0.8490 hn         1 NPP       0.462800
     56 H63         -1.1210     6.8230     1.0640 hn         1 NPP       0.462800
@<TRIPOS>BOND
     1     1     2 1
     2     1     3 1
     3     1     9 1
     4     3     4 1
     5     3     5 1
     6     3     6 1
     7     4    29 1
     8     4    30 1
     9     4    31 1
    10     5    32 1
    11     5    33 1
    12     5    34 1
    13     6     7 1
    14     6    35 1
    15     6    36 1
    16     7     8 1
    17     7    12 1
    18     7    37 1
    19     8     9 1
    20     8    38 1
    21     8    39 1
    22     9    10 1
    23     9    11 1
    24    10    40 1
    25    10    41 1
    26    10    42 1
    27    11    43 1
    28    11    44 1
    29    11    45 1
    30    12    13 1
    31    12    46 1
    32    13    14 ar
    33    13    24 ar
    34    14    15 1
    35    14    18 ar
    36    15    16 1
    37    15    17 1
    38    18    19 ar
    39    18    47 1
    40    19    20 1
    41    19    23 ar
    42    20    21 1
    43    20    22 1
    44    23    24 ar
    45    23    25 1
    46    24    48 1
    47    25    26 1
    48    25    49 1
    49    26    27 1
    50    26    50 1
    51    26    51 1
    52    27    28 1
    53    27    52 1
    54    27    53 1
    55    28    54 1
    56    28    55 1
    57    56    28 1
@<TRIPOS>SUBSTRUCTURE
     1 NPP         1 TEMP              0 ****  ****    0 ROOT
