@<TRIPOS>MOLECULE
molecule
   33    34     1     0     0
SMALL
bcc


@<TRIPOS>ATOM
      1 C            0.0000     0.0000     0.0000 c          1 NPQ       0.885600
      2 N            1.9940     1.1980    -0.6900 ns         1 NPQ      -0.550900
      3 O           -0.6050     0.9090    -0.5190 o          1 NPQ      -0.837800
      4 CA           1.5070     0.0000     0.0000 c3         1 NPQ       0.012700
      5 CB           2.0170     0.0000     1.4420 c3         1 NPQ      -0.042100
      6 CG           3.5190    -0.1230     1.4440 ca         1 NPQ      -0.050300
      7 CAA          2.6250     2.4270    -2.7410 c3         1 NPQ      -0.170100
      8 OAB          1.8350     0.2040    -2.6680 o          1 NPQ      -0.624100
      9 CAE          8.4450     0.6190     1.4220 ca         1 NPQ      -0.145000
     10 CAF          7.8600     1.8830     1.3820 ca         1 NPQ      -0.140000
     11 CAH          7.6800    -0.5060     1.4500 ca         1 NPQ      -0.113000
     12 CAI          6.5070     2.0300     1.3790 ca         1 NPQ      -0.116000
     13 CAJ          5.4570    -1.5340     1.4760 ca         1 NPQ      -0.132000
     14 CAN          2.1240     1.1970    -2.0320 c          1 NPQ       0.663100
     15 CAQ          6.2790    -0.3950     1.4470 ca         1 NPQ      -0.044000
     16 CAR          5.6840     0.8910     1.4120 ca         1 NPQ      -0.029000
     17 CD1          4.1040    -1.3870     1.4740 ca         1 NPQ      -0.105000
     18 CD2          4.2830     1.0020     1.4110 ca         1 NPQ      -0.132000
     19 OXT         -0.6710    -1.0080     0.5810 o          1 NPQ      -0.837800
     20 HN           2.1830     2.0320    -0.1710 hn         1 NPQ       0.293500
     21 HA           1.8690    -0.8840    -0.5110 h1         1 NPQ       0.078700
     22 HB           1.5850    -0.8370     1.9780 hc         1 NPQ       0.064200
     23 HBA          1.7290     0.9250     1.9270 hc         1 NPQ       0.064200
     24 HAA          3.7080     2.4120    -2.7690 hc         1 NPQ       0.044700
     25 HAAA         2.2890     3.3110    -2.2130 hc         1 NPQ       0.044700
     26 HAAB         2.2380     2.4430    -3.7530 hc         1 NPQ       0.044700
     27 HAE          9.5250     0.5300     1.4240 ha         1 NPQ       0.115000
     28 HAF          8.4920     2.7630     1.3610 ha         1 NPQ       0.115000
     29 HAH          8.1490    -1.4820     1.4810 ha         1 NPQ       0.123000
     30 HAI          6.0670     3.0190     1.3470 ha         1 NPQ       0.126000
     31 HAJ          5.8970    -2.5230     1.4990 ha         1 NPQ       0.123000
     32 HD1          3.4720    -2.2660     1.4970 ha         1 NPQ       0.141000
     33 HD2          3.8180     1.9760     1.5050 ha         1 NPQ       0.129000
@<TRIPOS>BOND
     1     4     1 1
     2     3     1 1
     3     1    19 1
     4    14     2 1
     5     2     4 1
     6     2    20 1
     7     5     4 1
     8     4    21 1
     9     5     6 1
    10     5    22 1
    11     5    23 1
    12    17     6 ar
    13     6    18 ar
    14     7    14 1
    15     7    24 1
    16     7    25 1
    17     7    26 1
    18     8    14 2
    19    11     9 ar
    20     9    10 ar
    21     9    27 1
    22    10    12 ar
    23    10    28 1
    24    11    15 ar
    25    11    29 1
    26    16    12 ar
    27    12    30 1
    28    13    17 ar
    29    13    15 ar
    30    13    31 1
    31    15    16 ar
    32    16    18 ar
    33    17    32 1
    34    18    33 1
@<TRIPOS>SUBSTRUCTURE
     1 NPQ         1 TEMP              0 ****  ****    0 ROOT
