@<TRIPOS>MOLECULE
NPR
   31    32     1     0     0
SMALL
bcc


@<TRIPOS>ATOM
      1 N1         -0.1280   -0.3510   -0.1870 nh        1 NPR     -0.881800
      2 C2          1.2290    0.0630   -0.0490 cc        1 NPR      0.817100
      3 N3          1.6560    0.6290    1.0640 nd        1 NPR     -0.713100
      4 C4          3.0340    0.9090    1.2540 c         1 NPR      0.740700
      5 O5          3.3980    1.4260    2.3180 o         1 NPR     -0.512100
      6 C6          3.9600    0.5670    0.1440 cc        1 NPR     -0.153600
      7 N7          5.3200    0.8390    0.2960 ne        1 NPR     -0.461300
      8 C8          6.1250    0.5450   -0.6800 c2        1 NPR      0.289300
      9 C9          5.6990   -0.0880   -1.9910 c3        1 NPR      0.146500
     10 N10         4.3070   -0.4810   -2.0280 nh        1 NPR     -0.762000
     11 C11         3.4460   -0.0340   -1.0250 cd        1 NPR      0.368000
     12 N12         2.0660   -0.2140   -1.1750 na        1 NPR     -0.739000
     13 C13         7.6160    0.8020   -0.5620 c3        1 NPR      0.079800
     14 O14         8.1940    0.9180   -1.8530 oh        1 NPR     -0.594800
     15 C15         8.2960   -0.3860    0.1520 c3        1 NPR      0.112100
     16 O16         8.2290   -0.2100    1.5570 oh        1 NPR     -0.607800
     17 C17         9.7910   -0.4610   -0.1840 c3        1 NPR      0.145400
     18 O18        10.3900   -1.5730    0.4420 oh        1 NPR     -0.600800
     19 HN11       -0.6760   -0.1490    0.6260 hn        1 NPR      0.411800
     20 HN12       -0.5600   -0.0230   -1.0260 hn        1 NPR      0.411800
     21 H91         5.9260    0.6370   -2.8290 h1        1 NPR      0.059700
     22 H92         6.3190   -1.0160   -2.1660 h1        1 NPR      0.059700
     23 H10         3.9370   -0.6550   -2.9350 hn        1 NPR      0.429800
     24 H12         1.7260   -0.8110   -1.8970 hn        1 NPR      0.449800
     25 H13         7.8080    1.7400    0.0340 h1        1 NPR      0.080700
     26 H14         7.9490    1.7900   -2.1880 ho        1 NPR      0.409000
     27 H15         7.7920   -1.3480   -0.1390 h1        1 NPR      0.053700
     28 H16         7.2980   -0.1490    1.8050 ho        1 NPR      0.428000
     29 H171        9.9270   -0.6250   -1.2860 h1        1 NPR      0.059700
     30 H172       10.2960    0.4890    0.1320 h1        1 NPR      0.059700
     31 H18        10.2340   -1.4830    1.3920 ho        1 NPR      0.415000
@<TRIPOS>BOND
     1    1    2 1
     2    1   19 1
     3    1   20 1
     4    2    3 2
     5    2   12 1
     6    3    4 1
     7    4    5 2
     8    4    6 1
     9    6    7 1
    10    6   11 2
    11    7    8 2
    12    8    9 1
    13    8   13 1
    14    9   10 1
    15    9   21 1
    16    9   22 1
    17   10   11 1
    18   10   23 1
    19   11   12 1
    20   12   24 1
    21   13   14 1
    22   13   15 1
    23   13   25 1
    24   14   26 1
    25   15   16 1
    26   15   17 1
    27   15   27 1
    28   16   28 1
    29   17   18 1
    30   17   29 1
    31   17   30 1
    32   18   31 1
@<TRIPOS>SUBSTRUCTURE
     1 NPR         1 TEMP              0 ****  ****    0 ROOT
