@<TRIPOS>MOLECULE
NPS
   30    26     1     0     0
SMALL
bcc


@<TRIPOS>ATOM
      1 C1          7.3650    0.7620    1.8650 c2        1 NPS     -0.249100
      2 O2         -6.2720   -0.2920   -0.1240 o         1 NPS     -0.639100
      3 C2          6.1180    0.7110    1.5170 c1        1 NPS     -0.033800
      4 C14         1.7300   -0.0410    4.7460 c3        1 NPS     -0.074400
      5 C3          4.8650    0.6550    1.1390 ce        1 NPS     -0.008800
      6 C4          3.7630    0.7450    1.9990 cg        1 NPS     -0.225300
      7 C5         -1.7800    0.3550    1.5690 cg        1 NPS     -0.457000
      8 C6         -2.8360    0.1870    0.9770 c1        1 NPS     -0.203000
      9 C7          2.8000    0.8190    2.7110 c1        1 NPS     -0.043100
     10 C8          1.6290    0.9250    3.5550 c3        1 NPS      0.147500
     11 C10         2.8340    0.3440    5.6950 c3        1 NPS     -0.099100
     12 C13        -0.6170    0.5400    2.2270 cg        1 NPS      0.126000
     13 C11         0.4140    0.7080    2.8260 c1        1 NPS     -0.361100
     14 C12        -5.0950   -0.1870   -0.4870 c         1 NPS      0.416700
     15 C15         3.0490   -3.4560    7.4540 c1        1 NPS      0.881000
     16 H14         1.8960   -1.0810    4.3620 hc        1 NPS      0.049700
     17 H101        2.9050   -0.3990    6.5280 hc        1 NPS      0.029367
     18 H102        0.7450   -0.0340    5.2830 hc        1 NPS      0.049700
     19 H103        2.6410    1.3510    6.1380 hc        1 NPS      0.029367
     20 H7          3.8160    0.3780    5.1650 hc        1 NPS      0.029367
     21 H11         1.6150    1.9840    3.9710 hc        1 NPS      0.056700
     22 H3          4.6180    0.5270    0.0650 ha        1 NPS      0.149000
     23 H2         -8.6790   -0.4410    1.5970 ha        1 NPS      0.000000
     24 H13        -8.0690   -0.3920    1.3050 ha        1 NPS      0.000000
     25 H6          7.9390   -0.1370    2.1310 ha        1 NPS      0.121000
     26 H121        7.9230    1.7080    1.9160 ha        1 NPS      0.121000
     27 H122       -4.1380   -0.0210    0.2340 h4        1 NPS      0.035200
     28 H123       -4.8820   -0.2510   -1.5910 h4        1 NPS      0.035200
     29 OXT         3.1250   -2.3770    7.9480 o         1 NPS     -0.440000
     30 O           2.9810   -4.5430    6.9760 o         1 NPS     -0.440000
@<TRIPOS>BOND
     1    1    3 2   
     2    1   25 1   
     3    1   26 1   
     4    2   14 2   
     5    3    5 2   
     6    4   10 1   
     7    4   11 1   
     8    4   16 1   
     9    4   18 1   
    10    5    6 1   
    11    5   22 1   
    12    6    9 3   
    13    7    8 3   
    14    7   12 1   
    15    9   10 1   
    16   10   13 1   
    17   10   21 1   
    18   11   17 1   
    19   11   19 1   
    20   11   20 1   
    21   12   13 3   
    22   14   27 1   
    23   14   28 1   
    24   15   29 2   
    25   15   30 2   
    26   23   24 1   
@<TRIPOS>SUBSTRUCTURE
     1 NPS         1 TEMP              0 ****  ****    0 ROOT
