@<TRIPOS>MOLECULE
molecule
   30    31     1     0     0
SMALL
bcc


@<TRIPOS>ATOM
      1 C1           0.0000     0.0000     0.0000 ca         1 NPS       0.119100
      2 O2          -0.7290     0.0050    -1.1320 os         1 NPS      -0.343900
      3 C2           1.3690     0.0000     0.0000 ca         1 NPS      -0.220000
      4 C14          1.7780     0.0390     6.1590 c3         1 NPS      -0.174400
      5 C3           2.0590     0.0000     1.1940 ca         1 NPS      -0.080000
      6 C4           1.3870     0.0020     2.4000 ca         1 NPS      -0.056000
      7 C5          -0.0690     0.0070     2.3610 ca         1 NPS      -0.018000
      8 C6          -0.7060     0.0010     1.1670 ca         1 NPS      -0.161000
      9 C7           2.0050     0.0070     3.6360 ca         1 NPS      -0.113000
     10 C8           1.2280    -0.0020     4.7850 ca         1 NPS      -0.001300
     11 C10          2.7540     1.1830     6.2920 c3         1 NPS      -0.061100
     12 C13         -0.7970     0.0070     3.5060 ca         1 NPS      -0.151000
     13 C11         -0.1370     0.0140     4.7000 ca         1 NPS      -0.100000
     14 C12         -0.1100     0.1020    -2.3710 c3         1 NPS       0.142700
     15 C15          2.3880    -1.1710     6.7560 c          1 NPS       0.937600
     16 H14          0.9400     0.2860     6.7990 hc         1 NPS       0.035700
     17 H101         2.3280     2.0750     5.8470 hc         1 NPS       0.021033
     18 H102         2.9570     1.3650     7.3400 hc         1 NPS       0.021033
     19 H103         3.6770     0.9320     5.7830 hc         1 NPS       0.021033
     20 H7           3.0770    -0.1320     3.7050 ha         1 NPS       0.149000
     21 H11         -0.7170     0.0320     5.6150 ha         1 NPS       0.131000
     22 H3           3.1430    -0.0000     1.1860 ha         1 NPS       0.126000
     23 H2           1.9110    -0.0140    -0.9380 ha         1 NPS       0.118000
     24 H13         -1.8790     0.0200     3.4720 ha         1 NPS       0.119000
     25 H6          -1.7890    -0.0020     1.1380 ha         1 NPS       0.131000
     26 H121         0.5440    -0.7490    -2.5150 h1         1 NPS       0.026700
     27 H122         0.4700     1.0150    -2.4140 h1         1 NPS       0.026700
     28 H123        -0.8630     0.1140    -3.1500 h1         1 NPS       0.026700
     29 OXT          3.6060    -1.2860     6.7600 o          1 NPS      -0.834800
     30 O            1.6680    -2.0030     7.2740 o          1 NPS      -0.834800
@<TRIPOS>BOND
     1    29    15 1
     2    15    30 1
     3    15     4 1
     4     4    11 1
     5     4    10 1
     6    10     9 ar
     7    10    13 ar
     8     9     6 ar
     9     6     5 ar
    10     6     7 ar
    11     5     3 ar
    12     3     1 ar
    13    13    12 ar
    14    12     7 ar
    15     7     8 ar
    16     8     1 ar
    17     1     2 1
    18     2    14 1
    19     4    16 1
    20    11    17 1
    21    11    18 1
    22    11    19 1
    23     9    20 1
    24    13    21 1
    25     5    22 1
    26     3    23 1
    27    12    24 1
    28     8    25 1
    29    14    26 1
    30    14    27 1
    31    14    28 1
@<TRIPOS>SUBSTRUCTURE
     1 NPS         1 TEMP              0 ****  ****    0 ROOT
