@<TRIPOS>MOLECULE
NPT
   20    19     1     0     0
SMALL
bcc


@<TRIPOS>ATOM
      1 N            0.0000     0.0000     0.0000 nz         1 NPT       0.066400
      2 C1           1.4690     0.0000     0.0000 c3         1 NPT      -0.042200
      3 C2           1.9780     0.0000     1.4420 c3         1 NPT      -0.095000
      4 C3           3.5090    -0.0010     1.4420 c3         1 NPT       0.000567
      5 C4           1.4680    -1.2480     2.1640 c3         1 NPT       0.000567
      6 C5           1.4700     1.2490     2.1620 c3         1 NPT       0.000567
      7 HN1         -0.3340     0.8160     0.4740 hn         1 NPT       0.228133
      8 HN2         -0.3340     0.0020    -0.9440 hn         1 NPT       0.228133
      9 H11          1.8300    -0.8850    -0.5110 hx         1 NPT       0.086700
     10 H12          1.8300     0.8850    -0.5110 hx         1 NPT       0.086700
     11 H31          3.8690    -0.0000     2.4640 hc         1 NPT       0.023811
     12 H32          3.8700    -0.8860     0.9320 hc         1 NPT       0.023811
     13 H33          3.8700     0.8830     0.9320 hc         1 NPT       0.023811
     14 H41          0.4240    -1.1160     2.4180 hc         1 NPT       0.023811
     15 H42          1.5760    -2.1090     1.5160 hc         1 NPT       0.023811
     16 H43          2.0440    -1.4020     3.0680 hc         1 NPT       0.023811
     17 H51          2.0470     1.4040     3.0660 hc         1 NPT       0.023811
     18 H52          1.5790     2.1100     1.5130 hc         1 NPT       0.023811
     19 H53          0.4260     1.1190     2.4180 hc         1 NPT       0.023811
     20 HN3         -0.3340    -0.8220     0.4630 hn         1 NPT       0.228133
@<TRIPOS>BOND
     1     1     2 1   
     2     1     7 1   
     3     1     8 1   
     4     1    20 1   
     5     2     3 1   
     6     2     9 1   
     7     2    10 1   
     8     3     4 1   
     9     3     5 1   
    10     3     6 1   
    11     4    11 1   
    12     4    12 1   
    13     4    13 1   
    14     5    14 1   
    15     5    15 1   
    16     5    16 1   
    17     6    17 1   
    18     6    18 1   
    19     6    19 1   
@<TRIPOS>SUBSTRUCTURE
     1 NPT         1 TEMP              0 ****  ****    0 ROOT
