@<TRIPOS>MOLECULE
molecule
   25    25     1     0     0
SMALL
bcc


@<TRIPOS>ATOM
      1 O1           0.0000     0.0000     0.0000 oh         1 NPU      -0.615800
      2 C2           1.3300     1.3130    -2.1230 c3         1 NPU      -0.117100
      3 N2           1.5510     2.4460     0.0370 nz         1 NPU      -0.807600
      4 CA2          1.9390     1.2490    -0.7220 c3         1 NPU       0.108500
      5 CB2          1.4290     0.0000     0.0000 c3         1 NPU       0.181400
      6 CD3          3.0870    -0.6870     1.7460 ca         1 NPU      -0.127500
      7 CD4          1.2370     0.6870     2.3990 ca         1 NPU      -0.127500
      8 CE3          3.5470    -0.6870     3.0490 ca         1 NPU      -0.109000
      9 CE4          1.6990     0.6870     3.7020 ca         1 NPU      -0.109000
     10 CG2          1.9310     0.0000     1.4210 ca         1 NPU      -0.184300
     11 CZ2          2.8530    -0.0010     4.0270 ca         1 NPU      -0.093000
     12 HO1         -0.3140    -0.8710    -0.1780 ho         1 NPU       0.448000
     13 H2           1.4010     0.3400    -2.5940 hc         1 NPU       0.077367
     14 H2A          0.2890     1.6040    -2.0520 hc         1 NPU       0.077367
     15 H2B          1.8680     2.0420    -2.7170 hc         1 NPU       0.077367
     16 HN2          1.9230     2.3880     0.9650 hn         1 NPU       0.458467
     17 HN2A         0.5530     2.5040     0.0810 hn         1 NPU       0.458467
     18 HA2          3.0190     1.2050    -0.7990 hx         1 NPU       0.116700
     19 HB2          1.7900    -0.8850    -0.5100 h1         1 NPU       0.090700
     20 HD3          3.6310    -1.2250     0.9790 ha         1 NPU       0.136000
     21 HD4          0.3320     1.2260     2.1440 ha         1 NPU       0.136000
     22 HE3          4.4510    -1.2250     3.3030 ha         1 NPU       0.155000
     23 HE4          1.1550     1.2260     4.4690 ha         1 NPU       0.155000
     24 HZ2          3.2150    -0.0000     5.0480 ha         1 NPU       0.158000
     25 H23          1.9100     3.2610    -0.4190 hn         1 NPU       0.458467
@<TRIPOS>BOND
     1     1     5 1
     2     2     4 1
     3     3     4 1
     4     4     5 1
     5     5    10 1
     6     6     8 ar
     7     6    10 ar
     8     7     9 ar
     9     7    10 ar
    10     8    11 ar
    11     9    11 ar
    12     1    12 1
    13     2    13 1
    14     2    14 1
    15     2    15 1
    16     3    16 1
    17     3    17 1
    18     4    18 1
    19     5    19 1
    20     6    20 1
    21     7    21 1
    22     8    22 1
    23     9    23 1
    24    11    24 1
    25    25     3 1
@<TRIPOS>SUBSTRUCTURE
     1 NPU         1 TEMP              0 ****  ****    0 ROOT
