@<TRIPOS>MOLECULE
molecule
   40    43     1     0     0
SMALL
bcc


@<TRIPOS>ATOM
      1 C4           0.0000     0.0000     0.0000 ca         1 NPV      -0.071600
      2 C5           1.3980     0.0000     0.0000 ca         1 NPV      -0.113000
      3 C6           2.0850     0.0000     1.1930 ca         1 NPV      -0.120000
      4 C7           1.3860    -0.0010     2.4000 cp         1 NPV      -0.206500
      5 C9          -0.6980    -0.0020     1.2100 ca         1 NPV      -0.113000
      6 C10          2.1270    -0.0010     3.6840 cp         1 NPV       0.524800
      7 C15          3.6580    -0.0090     8.3390 ca         1 NPV       0.409200
      8 C11          1.4200    -0.0080     4.8760 ca         1 NPV      -0.243300
      9 C12          2.1340    -0.0080     6.0850 ca         1 NPV      -0.119300
     10 C13          1.4890    -0.0160     7.3350 ca         1 NPV      -0.082000
     11 C3          -0.7380     0.0060    -1.2790 c          1 NPV       0.876200
     12 O1          -0.1310     0.0130    -2.3310 o          1 NPV      -0.829800
     13 O2          -2.0860     0.0050    -1.2790 o          1 NPV      -0.829800
     14 C8          -0.0090    -0.0020     2.4020 ca         1 NPV      -0.120000
     15 N19          3.4600     0.0000     3.6670 nb         1 NPV      -0.669000
     16 C14          2.2690    -0.0150     8.4570 ca         1 NPV      -0.249300
     17 N16          4.2520    -0.0020     7.1690 nb         1 NPV      -0.680000
     18 C17          3.5510    -0.0020     6.0370 ca         1 NPV       0.281300
     19 C18          4.1840     0.0000     4.7690 cp         1 NPV       0.442500
     20 C20          5.6620     0.0010     4.6810 cp         1 NPV      -0.135500
     21 C25          6.3030    -0.6860     3.6500 ca         1 NPV      -0.033000
     22 C21          6.4200     0.6920     5.6260 ca         1 NPV      -0.044000
     23 C22          7.7970     0.6890     5.5390 ca         1 NPV      -0.154000
     24 C23          8.4260     0.0030     4.5160 ca         1 NPV      -0.071000
     25 C24          7.6800    -0.6810     3.5720 ca         1 NPV      -0.170200
     26 N26          8.3620    -1.4080     2.4790 no         1 NPV       0.295200
     27 O27          7.7070    -2.0120     1.6470 o          1 NPV      -0.211500
     28 O28          9.5790    -1.4050     2.4100 o          1 NPV      -0.211500
     29 H5           1.9400     0.0010    -0.9380 ha         1 NPV       0.156500
     30 H6           3.1680     0.0000     1.1940 ha         1 NPV       0.119000
     31 H9          -1.7810    -0.0020     1.2110 ha         1 NPV       0.156500
     32 H15          4.2630    -0.0090     9.2370 h4         1 NPV       0.016100
     33 H11          0.3580    -0.2200     4.8740 ha         1 NPV       0.155000
     34 H13          0.4080    -0.0210     7.4060 ha         1 NPV       0.144000
     35 H8          -0.5500    -0.0030     3.3410 ha         1 NPV       0.119000
     36 H14          1.8080    -0.0210     9.4380 ha         1 NPV       0.133000
     37 H25          5.7200    -1.2220     2.9100 ha         1 NPV       0.185000
     38 H21          5.9280     1.2300     6.4280 ha         1 NPV       0.164000
     39 H22          8.3860     1.2250     6.2740 ha         1 NPV       0.141000
     40 H23          9.5080     0.0040     4.4510 ha         1 NPV       0.156000
@<TRIPOS>BOND
     1    12    11 1
     2    13    11 1
     3    11     1 1
     4     1     2 ar
     5     1     5 ar
     6     2     3 ar
     7     5    14 ar
     8     3     4 ar
     9    14     4 ar
    10     4     6 1
    11    28    26 1
    12     6    15 ar
    13     6     8 ar
    14    15    19 ar
    15    26    27 1
    16    26    25 1
    17     8     9 ar
    18    21    25 ar
    19    21    20 ar
    20    25    24 ar
    21    19    20 1
    22    19    18 ar
    23     9    18 ar
    24     9    10 ar
    25    20    22 ar
    26    18    17 ar
    27    10    16 ar
    28    24    23 ar
    29    22    23 ar
    30    17     7 ar
    31    16     7 ar
    32     2    29 1
    33     3    30 1
    34     5    31 1
    35     7    32 1
    36     8    33 1
    37    10    34 1
    38    14    35 1
    39    16    36 1
    40    21    37 1
    41    22    38 1
    42    23    39 1
    43    24    40 1
@<TRIPOS>SUBSTRUCTURE
     1 NPV         1 TEMP              0 ****  ****    0 ROOT
