@<TRIPOS>MOLECULE
NPV
   40    43     1     0     0
SMALL
bcc


@<TRIPOS>ATOM
      1 C4           0.0000     0.0000     0.0000 ca         1 NPV      -0.069600
      2 C5           1.3980     0.0000     0.0000 ca         1 NPV      -0.085500
      3 C6           2.0850     0.0000     1.1930 ca         1 NPV      -0.103000
      4 C7           1.3860    -0.0010     2.4000 cp         1 NPV      -0.223500
      5 C9          -0.6980    -0.0020     1.2100 ca         1 NPV      -0.085500
      6 C10          2.1270    -0.0010     3.6840 cp         1 NPV       0.490800
      7 C15          3.6580    -0.0090     8.3390 ca         1 NPV       0.386200
      8 C11          1.4200    -0.0080     4.8760 ca         1 NPV      -0.224300
      9 C12          2.1340    -0.0080     6.0850 ca         1 NPV      -0.116300
     10 C13          1.4890    -0.0160     7.3350 ca         1 NPV      -0.056000
     11 C3          -0.7380     0.0060    -1.2790 c          1 NPV       0.966200
     12 O1          -0.1310     0.0130    -2.3310 o          1 NPV      -0.877800
     13 O2          -2.0860     0.0050    -1.2790 o          1 NPV      -0.877800
     14 C8          -0.0090    -0.0020     2.4020 ca         1 NPV      -0.103000
     15 N19          3.4600     0.0000     3.6670 nb         1 NPV      -0.544000
     16 C14          2.2690    -0.0150     8.4570 ca         1 NPV      -0.218300
     17 N16          4.2520    -0.0020     7.1690 nb         1 NPV      -0.562000
     18 C17          3.5510    -0.0020     6.0370 ca         1 NPV       0.244300
     19 C18          4.1840     0.0000     4.7690 cp         1 NPV       0.383500
     20 C20          5.6620     0.0010     4.6810 cp         1 NPV      -0.151500
     21 C25          6.3030    -0.6860     3.6500 ca         1 NPV       0.021000
     22 C21          6.4200     0.6920     5.6260 ca         1 NPV      -0.014000
     23 C22          7.7970     0.6890     5.5390 ca         1 NPV      -0.137000
     24 C23          8.4260     0.0030     4.5160 ca         1 NPV      -0.017000
     25 C24          7.6800    -0.6810     3.5720 ca         1 NPV      -0.463200
     26 N26          8.3620    -1.4080     2.4790 no         1 NPV       1.050200
     27 O27          7.7070    -2.0120     1.6470 o          1 NPV      -0.456000
     28 O28          9.5790    -1.4050     2.4100 o          1 NPV      -0.456000
     29 H5           1.9400     0.0010    -0.9380 ha         1 NPV       0.129500
     30 H6           3.1680     0.0000     1.1940 ha         1 NPV       0.097500
     31 H9          -1.7810    -0.0020     1.2110 ha         1 NPV       0.129500
     32 H15          4.2630    -0.0090     9.2370 h4         1 NPV      -0.026900
     33 H11          0.3580    -0.2200     4.8740 ha         1 NPV       0.136000
     34 H13          0.4080    -0.0210     7.4060 ha         1 NPV       0.114000
     35 H8          -0.5500    -0.0030     3.3410 ha         1 NPV       0.097500
     36 H14          1.8080    -0.0210     9.4380 ha         1 NPV       0.108000
     37 H25          5.7200    -1.2220     2.9100 ha         1 NPV       0.149000
     38 H21          5.9280     1.2300     6.4280 ha         1 NPV       0.130000
     39 H22          8.3860     1.2250     6.2740 ha         1 NPV       0.109000
     40 H23          9.5080     0.0040     4.4510 ha         1 NPV       0.124000
@<TRIPOS>BOND
     1     1     2 ar  
     2     1     5 ar  
     3     1    11 1   
     4     2     3 ar  
     5     2    29 1   
     6     3     4 ar  
     7     3    30 1   
     8     4     6 1   
     9     4    14 ar  
    10     5    14 ar  
    11     5    31 1   
    12     6     8 ar  
    13     6    15 ar  
    14     7    16 ar  
    15     7    17 ar  
    16     7    32 1   
    17     8     9 ar  
    18     8    33 1   
    19     9    10 ar  
    20     9    18 ar  
    21    10    16 ar  
    22    10    34 1   
    23    11    12 1   
    24    11    13 1   
    25    14    35 1   
    26    15    19 ar  
    27    16    36 1   
    28    17    18 ar  
    29    18    19 ar  
    30    19    20 1   
    31    20    21 ar  
    32    20    22 ar  
    33    21    25 ar  
    34    21    37 1   
    35    22    23 ar  
    36    22    38 1   
    37    23    24 ar  
    38    23    39 1   
    39    24    25 ar  
    40    24    40 1   
    41    25    26 1   
    42    26    27 1   
    43    26    28 1   
@<TRIPOS>SUBSTRUCTURE
     1 NPV         1 TEMP              0 ****  ****    0 ROOT
