@<TRIPOS>MOLECULE
molecule
   30    31     1     0     0
SMALL
bcc


@<TRIPOS>ATOM
      1 C1           0.0000     0.0000     0.0000 ca         1 NPX       0.107100
      2 O2          -0.6700     0.0010    -1.1820 os         1 NPX      -0.340900
      3 C2           1.3990     0.0000     0.0000 ca         1 NPX      -0.223000
      4 C3           2.0980     0.0000     1.1660 ca         1 NPX      -0.081000
      5 C4           1.4090    -0.0010     2.3920 ca         1 NPX      -0.059000
      6 C5          -0.0080     0.0000     2.3950 ca         1 NPX      -0.011000
      7 C6          -0.7000     0.0060     1.1730 ca         1 NPX      -0.153000
      8 C7           2.1000    -0.0010     3.6160 ca         1 NPX      -0.141000
      9 C8           1.4020    -0.0010     4.7840 ca         1 NPX      -0.010300
     10 C9           2.1470    -0.0020     6.0950 c3         1 NPX      -0.145400
     11 C10          1.7710     1.2470     6.8940 c3         1 NPX      -0.060100
     12 C13         -0.6950     0.0000     3.6220 ca         1 NPX      -0.157000
     13 C11          0.0080    -0.0010     4.7870 ca         1 NPX      -0.051000
     14 C12          0.1160     0.0010    -2.3740 c3         1 NPX       0.133700
     15 C15          1.7770    -1.2320     6.8820 c          1 NPX       0.894600
     16 H2           1.9330    -0.0000    -0.9430 ha         1 NPX       0.116000
     17 H6          -1.7770     0.1280     1.1610 ha         1 NPX       0.133000
     18 H121         0.7410    -0.8840    -2.3940 h1         1 NPX       0.031700
     19 H122         0.7410     0.8850    -2.3940 h1         1 NPX       0.031700
     20 H123        -0.5380     0.0010    -3.2370 h1         1 NPX       0.031700
     21 H3           3.1810    -0.0000     1.1520 ha         1 NPX       0.123000
     22 H7           3.1780    -0.1120     3.6290 ha         1 NPX       0.127000
     23 H13         -1.7780     0.0010     3.6390 ha         1 NPX       0.119000
     24 H9           3.2130    -0.0020     5.9040 hc         1 NPX       0.047700
     25 H11         -0.5240    -0.0010     5.7310 ha         1 NPX       0.147000
     26 H101         2.4950     1.4000     7.6860 hc         1 NPX       0.022700
     27 H102         0.7860     1.1180     7.3260 hc         1 NPX       0.022700
     28 H103         1.7670     2.1090     6.2370 hc         1 NPX       0.022700
     29 OXT          2.3220    -1.4450     8.0900 o          1 NPX      -0.841300
     30 O            0.9890    -2.0280     6.4260 o          1 NPX      -0.841300
@<TRIPOS>BOND
     1     1     2 1
     2     1     3 ar
     3     1     7 ar
     4     2    14 1
     5     3     4 ar
     6     4     5 ar
     7     5     6 ar
     8     5     8 ar
     9     6     7 ar
    10     6    12 ar
    11     8     9 ar
    12     9    10 1
    13     9    13 ar
    14    10    11 1
    15    10    15 1
    16    12    13 ar
    17    29    15 1
    18    30    15 1
    19     3    16 1
    20     7    17 1
    21    14    18 1
    22    14    19 1
    23    14    20 1
    24     4    21 1
    25     8    22 1
    26    12    23 1
    27    10    24 1
    28    13    25 1
    29    11    26 1
    30    11    27 1
    31    11    28 1
@<TRIPOS>SUBSTRUCTURE
     1 NPX         1 TEMP              0 ****  ****    0 ROOT
