@<TRIPOS>MOLECULE
NPX
   30    31     1     0     0
SMALL
bcc


@<TRIPOS>ATOM
      1 C1          0.1490    0.1210   -0.0830 ca        1 NPX      0.082100
      2 O2         -0.5720    0.1890   -1.2710 os        1 NPX     -0.341900
      3 C2          1.5640    0.2140   -0.0350 ca        1 NPX     -0.198000
      4 C3          2.1990    0.1840    1.1830 ca        1 NPX     -0.091000
      5 C4          1.4650    0.0670    2.3930 ca        1 NPX     -0.052000
      6 C5          0.0500   -0.0270    2.3320 ca        1 NPX     -0.023000
      7 C6         -0.6000   -0.0020    1.0730 ca        1 NPX     -0.142000
      8 C7          2.1120    0.0440    3.6580 ca        1 NPX     -0.153000
      9 C8          1.3880   -0.0660    4.8260 ca        1 NPX     -0.005300
     10 C9          2.0590   -0.0620    6.1560 c3        1 NPX     -0.171400
     11 C10         1.8020    1.2400    6.8860 c3        1 NPX     -0.062100
     12 C13        -0.6790   -0.1580    3.5470 ca        1 NPX     -0.158000
     13 C11        -0.0320   -0.1800    4.7550 ca        1 NPX     -0.088000
     14 C12         0.1530   -0.1450   -2.4450 c3        1 NPX      0.120700
     15 C15         1.5770   -1.2450    7.0530 c         1 NPX      0.923600
     16 H2          2.1410    0.3100   -0.9640 ha        1 NPX      0.120000
     17 H6         -1.6950   -0.0750    1.0220 ha        1 NPX      0.137000
     18 H121       -0.6390   -0.2560   -3.2280 h1        1 NPX      0.032367
     19 H122        0.7170   -1.1000   -2.3180 h1        1 NPX      0.032367
     20 H123        0.8530    0.6830   -2.7170 h1        1 NPX      0.032367
     21 H3          3.2960    0.2520    1.2390 ha        1 NPX      0.124000
     22 H7          3.2090    0.1110    3.6860 ha        1 NPX      0.124000
     23 H13        -1.7740   -0.2510    3.4950 ha        1 NPX      0.120000
     24 H9          3.1670   -0.1890    6.0100 hc        1 NPX      0.046700
     25 H11        -0.5740   -0.3220    5.7120 ha        1 NPX      0.192000
     26 H101        2.1110    2.1170    6.2680 hc        1 NPX      0.021367
     27 H102        0.7150    1.3280    7.1290 hc        1 NPX      0.021367
     28 H103        2.3790    1.2520    7.8410 hc        1 NPX      0.021367
     29 OXT         2.4280   -2.1290    7.3360 o         1 NPX     -0.833800
     30 O           0.3820   -1.2380    7.4650 o         1 NPX     -0.833800
@<TRIPOS>BOND
     1    1    2 1   
     2    1    3 ar  
     3    1    7 ar  
     4    2   14 1   
     5    3    4 ar  
     6    3   16 1   
     7    4    5 ar  
     8    4   21 1   
     9    5    6 ar  
    10    5    8 ar  
    11    6    7 ar  
    12    6   12 ar  
    13    7   17 1   
    14    8    9 ar  
    15    8   22 1   
    16    9   10 1   
    17    9   13 ar  
    18   10   11 1   
    19   10   15 1   
    20   10   24 1   
    21   11   26 1   
    22   11   27 1   
    23   11   28 1   
    24   12   13 ar  
    25   12   23 1   
    26   13   25 1   
    27   14   18 1   
    28   14   19 1   
    29   14   20 1   
    30   15   29 1   
    31   15   30 1   
@<TRIPOS>SUBSTRUCTURE
     1 NPX         1 TEMP              0 ****  ****    0 ROOT
