@<TRIPOS>MOLECULE
NPY
   18    19     1     0     0
SMALL
bcc


@<TRIPOS>ATOM
      1 C1          0.0130    0.0000   -0.0120 ca        1 NPY     -0.117000
      2 C2          1.3850    0.0000   -0.0280 ca        1 NPY     -0.128000
      3 C3          2.1150   -0.0000    1.1860 ca        1 NPY     -0.128000
      4 C4          1.4560   -0.0000    2.3910 ca        1 NPY     -0.117000
      5 C4A         0.0350   -0.0000    2.4370 ca        1 NPY     -0.037000
      6 C5         -0.6730   -0.0000    3.6700 ca        1 NPY     -0.117000
      7 C6         -2.0460    0.0000    3.6860 ca        1 NPY     -0.128000
      8 C7         -2.7750    0.0000    2.4720 ca        1 NPY     -0.128000
      9 C8         -2.1170    0.0000    1.2670 ca        1 NPY     -0.117000
     10 C8A        -0.6960    0.0000    1.2210 ca        1 NPY     -0.037000
     11 H11        -0.5630    0.0000   -0.9500 ha        1 NPY      0.132000
     12 H2          1.9360   -0.0000   -0.9800 ha        1 NPY      0.132000
     13 H3          3.2140    0.0000    1.1480 ha        1 NPY      0.132000
     14 H4          2.0140   -0.0000    3.3400 ha        1 NPY      0.132000
     15 H5         -0.0980   -0.0000    4.6080 ha        1 NPY      0.132000
     16 H6         -2.5960    0.0000    4.6380 ha        1 NPY      0.132000
     17 H7         -3.8740    0.0000    2.5100 ha        1 NPY      0.132000
     18 H8         -2.6750    0.0000    0.3190 ha        1 NPY      0.132000
@<TRIPOS>BOND
     1    1    2 ar  
     2    1   10 ar  
     3    1   11 1   
     4    2    3 ar  
     5    2   12 1   
     6    3    4 ar  
     7    3   13 1   
     8    4    5 ar  
     9    4   14 1   
    10    5    6 ar  
    11    5   10 ar  
    12    6    7 ar  
    13    6   15 1   
    14    7    8 ar  
    15    7   16 1   
    16    8    9 ar  
    17    8   17 1   
    18    9   10 ar  
    19    9   18 1   
@<TRIPOS>SUBSTRUCTURE
     1 NPY         1 TEMP              0 ****  ****    0 ROOT
