@<TRIPOS>MOLECULE
molecule
   18    19     1     0     0
SMALL
bcc


@<TRIPOS>ATOM
      1 C1           0.0000     0.0000     0.0000 ca         1 NPY      -0.116000
      2 C2           1.3610     0.0000     0.0000 ca         1 NPY      -0.126000
      3 C3           2.0790     0.0000     1.1950 ca         1 NPY      -0.126000
      4 C4           1.4400     0.0000     2.3970 ca         1 NPY      -0.116000
      5 C4A          0.0350     0.0000     2.4370 ca         1 NPY      -0.035000
      6 C5          -0.6600    -0.0000     3.6580 ca         1 NPY      -0.116000
      7 C6          -2.0220     0.0000     3.6580 ca         1 NPY      -0.126000
      8 C7          -2.7400     0.0000     2.4630 ca         1 NPY      -0.126000
      9 C8          -2.1000     0.0000     1.2620 ca         1 NPY      -0.116000
     10 C8A         -0.6950     0.0000     1.2210 ca         1 NPY      -0.035000
     11 H11         -0.5440     0.0000    -0.9370 ha         1 NPY       0.132000
     12 H2           1.8950    -0.0000    -0.9430 ha         1 NPY       0.128000
     13 H3           3.1620    -0.0000     1.1670 ha         1 NPY       0.128000
     14 H4           2.0110     0.0000     3.3170 ha         1 NPY       0.132000
     15 H5          -0.1160    -0.0000     4.5950 ha         1 NPY       0.132000
     16 H6          -2.5550     0.0000     4.6010 ha         1 NPY       0.128000
     17 H7          -3.8230     0.0000     2.4920 ha         1 NPY       0.128000
     18 H8          -2.6710     0.0000     0.3410 ha         1 NPY       0.132000
@<TRIPOS>BOND
     1     1     2 ar
     2     1    10 ar
     3     1    11 1
     4     2     3 ar
     5     2    12 1
     6     3     4 ar
     7     3    13 1
     8     4     5 ar
     9     4    14 1
    10     5     6 ar
    11     5    10 ar
    12     6     7 ar
    13     6    15 1
    14     7     8 ar
    15     7    16 1
    16     8     9 ar
    17     8    17 1
    18     9    10 ar
    19     9    18 1
@<TRIPOS>SUBSTRUCTURE
     1 NPY         1 TEMP              0 ****  ****    0 ROOT
