@<TRIPOS>MOLECULE
molecule
   34    37     1     0     0
SMALL
bcc


@<TRIPOS>ATOM
      1 C6           0.0000     0.0000     0.0000 ca         1 NPZ       0.787200
      2 NAF         -0.7090     0.0000    -1.1860 nv         1 NPZ      -1.072500
      3 C5           1.4040     0.0000     0.0000 ca         1 NPZ      -0.496500
      4 N1          -0.6310     0.0070     1.1700 nb         1 NPZ      -0.800000
      5 C2           0.0410     0.0120     2.3070 ca         1 NPZ       0.731900
      6 N3           1.3550     0.0120     2.3560 nb         1 NPZ      -0.778000
      7 C4           2.0770     0.0000     1.2360 ca         1 NPZ       0.514800
      8 NAT          3.4120    -0.0000     0.9590 na         1 NPZ      -0.032800
      9 CAU          4.4830    -0.0000     1.9590 c3         1 NPZ       0.073600
     10 NAP          3.6010    -0.0010    -0.4270 nc         1 NPZ      -0.488100
     11 CAO          2.4390    -0.0020    -1.0350 cd         1 NPZ       0.446500
     12 CAG          2.2150    -0.0020    -2.5010 ca         1 NPZ      -0.095900
     13 CAH          1.2670     0.8420    -3.0490 ca         1 NPZ      -0.079000
     14 CAA          2.9710    -0.8560    -3.3200 ca         1 NPZ      -0.101000
     15 CAB          2.7840    -0.8760    -4.6650 ca         1 NPZ      -0.122000
     16 CAC          1.8240    -0.0340    -5.2540 ca         1 NPZ      -0.028000
     17 CAI          1.0590     0.8370    -4.4370 ca         1 NPZ      -0.045000
     18 CAD          1.6130    -0.0370    -6.6430 ca         1 NPZ      -0.117000
     19 CAE          0.6760     0.7900    -7.1850 ca         1 NPZ      -0.121000
     20 CAK         -0.0800     1.6420    -6.3810 ca         1 NPZ      -0.126000
     21 CAJ          0.1010     1.6760    -5.0320 ca         1 NPZ      -0.115000
     22 H1AF        -1.1750     0.8320    -1.4900 hn         1 NPZ       0.444800
     23 H2AF        -0.8110    -0.8480    -1.7070 hn         1 NPZ       0.444800
     24 H2          -0.5130     0.0180     3.2380 h5         1 NPZ       0.061100
     25 H1AU         5.4440     0.0120     1.4590 h1         1 NPZ       0.057367
     26 H2AU         4.3920     0.8780     2.5870 h1         1 NPZ       0.057367
     27 H3AU         4.4060    -0.8910     2.5710 h1         1 NPZ       0.057367
     28 HAH          0.7980     1.6010    -2.4340 ha         1 NPZ       0.142000
     29 HAA          3.7120    -1.5080    -2.8740 ha         1 NPZ       0.142000
     30 HAB          3.3750    -1.5400    -5.2840 ha         1 NPZ       0.136000
     31 HAD          2.1930    -0.6930    -7.2800 ha         1 NPZ       0.134000
     32 HAE          0.5130     0.7830    -8.2550 ha         1 NPZ       0.130000
     33 HAK         -0.8190     2.2900    -6.8370 ha         1 NPZ       0.130000
     34 HAJ         -0.4940     2.3430    -4.4200 ha         1 NPZ       0.132000
@<TRIPOS>BOND
     1     4     5 ar
     2     4     1 ar
     3     5     6 ar
     4     2     1 1
     5     1     3 ar
     6     6     7 ar
     7    15    14 ar
     8    15    16 ar
     9    14    12 ar
    10     3     7 ar
    11     3    11 1
    12     7     8 1
    13    18    16 ar
    14    18    19 ar
    15    16    17 ar
    16     8     9 1
    17     8    10 1
    18    11    12 1
    19    11    10 2
    20    12    13 ar
    21    19    20 ar
    22    17    13 ar
    23    17    21 ar
    24    20    21 ar
    25     2    22 1
    26     2    23 1
    27     5    24 1
    28     9    25 1
    29     9    26 1
    30     9    27 1
    31    13    28 1
    32    14    29 1
    33    15    30 1
    34    18    31 1
    35    19    32 1
    36    20    33 1
    37    21    34 1
@<TRIPOS>SUBSTRUCTURE
     1 NPZ         1 TEMP              0 ****  ****    0 ROOT
