@<TRIPOS>MOLECULE
NQ
   19    20     1     0     0
SMALL
bcc


@<TRIPOS>ATOM
      1 OAB         0.0110   -0.1860   -0.1160 o         1 NQ      -0.521100
      2 CAK         1.2460   -0.1260   -0.0430 c         1 NQ       0.554900
      3 CAM         1.9920   -0.0680    1.2230 ca        1 NQ      -0.140600
      4 CAG         1.2900   -0.0800    2.4330 ca        1 NQ      -0.077000
      5 CAE         1.9800   -0.0250    3.6460 ca        1 NQ      -0.122000
      6 CAD         3.3710    0.0400    3.6530 ca        1 NQ      -0.106000
      7 CAF         4.0780    0.0520    2.4490 ca        1 NQ      -0.088000
      8 CAL         3.3980   -0.0020    1.2300 ca        1 NQ      -0.123600
      9 CAJ         4.1730    0.0120   -0.0350 c         1 NQ       0.577900
     10 OAA         5.4100    0.0700   -0.0370 o         1 NQ      -0.514100
     11 CAH         3.4090   -0.0460   -1.2860 cc        1 NQ      -0.253200
     12 CAI         2.0610   -0.1090   -1.2890 cd        1 NQ       0.058900
     13 OAC         1.4000   -0.1620   -2.4880 oh        1 NQ      -0.481100
     14 HAG         0.1890   -0.1320    2.4160 ha        1 NQ       0.159000
     15 HAE         1.4200   -0.0350    4.5930 ha        1 NQ       0.145000
     16 HAD         3.9170    0.0830    4.6080 ha        1 NQ       0.144000
     17 HAF         5.1800    0.1040    2.4460 ha        1 NQ       0.164000
     18 HAH         3.9880   -0.0350   -2.2230 ha        1 NQ       0.176000
     19 HAC         0.4430   -0.2030   -2.3060 ho        1 NQ       0.445000
@<TRIPOS>BOND
     1    1    2 2   
     2    2    3 1   
     3    2   12 1   
     4    3    4 ar  
     5    3    8 ar  
     6    4    5 ar  
     7    4   14 1   
     8    5    6 ar  
     9    5   15 1   
    10    6    7 ar  
    11    6   16 1   
    12    7    8 ar  
    13    7   17 1   
    14    8    9 1   
    15    9   10 2   
    16    9   11 1   
    17   11   12 2   
    18   11   18 1   
    19   12   13 1   
    20   13   19 1   
@<TRIPOS>SUBSTRUCTURE
     1 NQ          1 TEMP              0 ****  ****    0 ROOT
