@<TRIPOS>MOLECULE
molecule
   19    20     1     0     0
SMALL
bcc


@<TRIPOS>ATOM
      1 OAB          0.0000     0.0000     0.0000 o          1 NQ       -0.488100
      2 CAK          1.2140     0.0000     0.0000 c          1 NQ        0.551900
      3 CAM          1.9580     0.0000     1.2780 ca         1 NQ       -0.137600
      4 CAG          1.2840     0.0000     2.4940 ca         1 NQ       -0.077000
      5 CAE          2.0040     0.0060     3.6790 ca         1 NQ       -0.116000
      6 CAD          3.3860     0.0110     3.6590 ca         1 NQ       -0.114000
      7 CAF          4.0710     0.0110     2.4530 ca         1 NQ       -0.079000
      8 CAL          3.3630     0.0050     1.2570 ca         1 NQ       -0.137600
      9 CAJ          4.0730     0.0040    -0.0430 c          1 NQ        0.573900
     10 OAA          5.2880     0.0090    -0.0730 o          1 NQ       -0.504100
     11 CAH          3.3080    -0.0010    -1.2930 cc         1 NQ       -0.228200
     12 CAI          1.9590    -0.0060    -1.2810 cd         1 NQ        0.054900
     13 OAC          1.2790    -0.0120    -2.4510 oh         1 NQ       -0.499100
     14 HAG          0.2010    -0.0040     2.5160 ha         1 NQ        0.157000
     15 HAE          1.4800     0.0060     4.6270 ha         1 NQ        0.141000
     16 HAD          3.9380     0.0160     4.5910 ha         1 NQ        0.140000
     17 HAF          5.1540     0.0150     2.4430 ha         1 NQ        0.158000
     18 HAH          3.8330    -0.0060    -2.2400 ha         1 NQ        0.168000
     19 HAC          1.1390    -0.9020    -2.7290 ho         1 NQ        0.434000
@<TRIPOS>BOND
     1     1     2 2
     2     2     3 1
     3     2    12 1
     4     3     4 ar
     5     3     8 ar
     6     4     5 ar
     7     4    14 1
     8     5     6 ar
     9     5    15 1
    10     6     7 ar
    11     6    16 1
    12     7     8 ar
    13     7    17 1
    14     8     9 1
    15     9    10 2
    16     9    11 1
    17    11    12 2
    18    11    18 1
    19    12    13 1
    20    13    19 1
@<TRIPOS>SUBSTRUCTURE
     1 NQ          1 TEMP              0 ****  ****    0 ROOT
