@<TRIPOS>MOLECULE
molecule
   58    62     1     0     0
SMALL
bcc


@<TRIPOS>ATOM
      1 C1           0.0000     0.0000     0.0000 c3         1 NQB       0.119300
      2 C2           1.5300     0.0000     0.0000 c3         1 NQB       0.161300
      3 C8           1.6360     1.2380     2.0780 c3         1 NQB       0.141100
      4 C9          -2.5360    -2.3000     1.3160 ca         1 NQB      -0.081000
      5 C10         -1.8830    -1.2540     0.6860 ca         1 NQB       0.084600
      6 C11         -2.6080    -0.2720     0.0120 ca         1 NQB      -0.149000
      7 C12         -3.9720    -0.3210    -0.0410 ca         1 NQB      -0.092000
      8 C14         -7.1830    -4.2630     3.8310 ca         1 NQB      -0.041000
      9 C15         -7.9350    -5.2690     4.4390 ca         1 NQB      -0.148600
     10 C16         -8.2550    -6.4250     3.7240 ca         1 NQB      -0.091000
     11 C19         -8.3930    -5.1100     5.8360 c          1 NQB       0.680700
     12 C20         -9.5730    -5.9250     7.8050 cx         1 NQB       0.059700
     13 C21         -9.8550    -7.1990     8.6050 cx         1 NQB      -0.157400
     14 C22        -11.0160    -6.3240     8.1260 cx         1 NQB      -0.157400
     15 N29         -6.0280    -3.4170     1.8170 n          1 NQB      -0.302500
     16 C30         -4.6790    -3.4460     1.9190 c          1 NQB       0.703100
     17 N3           2.0180     0.0000     1.3860 n3         1 NQB      -0.720600
     18 C4           1.5300    -1.1810     2.1130 c3         1 NQB       0.161300
     19 C5           0.0000    -1.1810     2.1130 c3         1 NQB       0.119300
     20 C17         -7.8260    -6.5700     2.4210 ca         1 NQB      -0.135000
     21 C18         -7.0810    -5.5750     1.8180 ca         1 NQB      -0.040300
     22 C23         -6.6160    -5.7410     0.3940 c3         1 NQB      -0.054800
     23 O24         -8.1140    -4.1040     6.4570 o          1 NQB      -0.601100
     24 C13         -6.7580    -4.4200     2.5210 ca         1 NQB       0.010600
     25 C25         -3.9270    -2.3620     1.2700 ca         1 NQB      -0.178600
     26 C26         -4.6570    -1.3640     0.5850 ca         1 NQB       0.160400
     27 N27         -6.0110    -1.4460     0.5540 nc         1 NQB      -0.637100
     28 C28         -6.6490    -2.4150     1.1370 cd         1 NQB       0.505800
     29 N5          -0.4880    -1.1810     0.7270 nh         1 NQB      -0.588000
     30 O29         -4.1130    -4.2930     2.5860 o          1 NQB      -0.608500
     31 N32         -9.1200    -6.0830     6.4220 ns         1 NQB      -0.550900
     32 H11C        -0.3600    -0.0310    -1.0210 h1         1 NQB       0.048200
     33 H12C        -0.3600     0.8970     0.4880 h1         1 NQB       0.048200
     34 H21C         1.8910     0.8860    -0.5080 h1         1 NQB       0.065200
     35 H22C         1.8910    -0.8860    -0.5080 h1         1 NQB       0.065200
     36 H81C         0.5580     1.2790     2.1770 h1         1 NQB       0.034367
     37 H82C         1.9790     2.0920     1.5060 h1         1 NQB       0.034367
     38 H83C         2.0890     1.2570     3.0620 h1         1 NQB       0.034367
     39 H9          -1.9710    -3.0620     1.8390 ha         1 NQB       0.162000
     40 H11         -2.0830     0.5400    -0.4760 ha         1 NQB       0.142000
     41 H12         -4.5220     0.4490    -0.5690 ha         1 NQB       0.150000
     42 H14         -6.9320    -3.3640     4.3800 ha         1 NQB       0.170000
     43 H16         -8.8390    -7.2080     4.1930 ha         1 NQB       0.128000
     44 H17         -8.0740    -7.4680     1.8670 ha         1 NQB       0.141000
     45 H32         -9.3290    -6.9220     5.9190 hn         1 NQB       0.317500
     46 H20         -9.1910    -5.0980     8.3900 h1         1 NQB       0.125700
     47 H211        -9.6350    -7.1440     9.6650 hc         1 NQB       0.078200
     48 H212        -9.7180    -8.1290     8.0670 hc         1 NQB       0.078200
     49 H221       -11.5040    -5.7350     8.8930 hc         1 NQB       0.078200
     50 H222       -11.5870    -6.7200     7.2950 hc         1 NQB       0.078200
     51 H28         -7.7310    -2.4270     1.0770 h5         1 NQB       0.060800
     52 H41C         1.8910    -1.1500     3.1340 h1         1 NQB       0.065200
     53 H42C         1.8900    -2.0780     1.6240 h1         1 NQB       0.065200
     54 H51C        -0.3600    -2.0670     2.6220 h1         1 NQB       0.048200
     55 H52C        -0.3600    -0.2950     2.6220 h1         1 NQB       0.048200
     56 H231        -6.8090    -4.8290    -0.1580 hc         1 NQB       0.053367
     57 H232        -5.5540    -5.9520     0.3820 hc         1 NQB       0.053367
     58 H233        -7.1520    -6.5620    -0.0680 hc         1 NQB       0.053367
@<TRIPOS>BOND
     1     1     2 1
     2     1    29 1
     3     2    17 1
     4     3    17 1
     5     4     5 ar
     6     4    25 ar
     7     5     6 ar
     8     5    29 1
     9     6     7 ar
    10     7    26 ar
    11     8     9 ar
    12     8    24 ar
    13     9    10 ar
    14     9    11 1
    15    10    20 ar
    16    11    23 2
    17    11    31 1
    18    12    13 1
    19    12    14 1
    20    12    31 1
    21    13    14 1
    22    15    16 1
    23    15    24 1
    24    15    28 1
    25    16    25 1
    26    16    30 2
    27    17    18 1
    28    18    19 1
    29    19    29 1
    30    20    21 ar
    31    21    22 1
    32    21    24 ar
    33    25    26 ar
    34    26    27 1
    35    27    28 2
    36     1    32 1
    37     1    33 1
    38     2    34 1
    39     2    35 1
    40     3    36 1
    41     3    37 1
    42     3    38 1
    43     4    39 1
    44     6    40 1
    45     7    41 1
    46     8    42 1
    47    10    43 1
    48    20    44 1
    49    31    45 1
    50    12    46 1
    51    13    47 1
    52    13    48 1
    53    14    49 1
    54    14    50 1
    55    28    51 1
    56    18    52 1
    57    18    53 1
    58    19    54 1
    59    19    55 1
    60    22    56 1
    61    22    57 1
    62    22    58 1
@<TRIPOS>SUBSTRUCTURE
     1 NQB         1 TEMP              0 ****  ****    0 ROOT
