@<TRIPOS>MOLECULE
NQG
   85    86     1     0     0
SMALL
bcc


@<TRIPOS>ATOM
      1 CAA          0.0000     0.0000     0.0000 c3         1 NQG      -0.004100
      2 CAS          1.5140     0.0000     0.0000 c3         1 NQG       0.214400
      3 OBE          1.9800     0.0000     1.3530 os         1 NQG      -0.420900
      4 CBL          3.3380    -0.0000     1.5070 c          1 NQG       0.706100
      5 OAK          4.1610    -0.0010     0.6020 o          1 NQG      -0.539000
      6 CBT          3.6620    -0.0080     2.9870 c3         1 NQG      -0.097400
      7 CBS          5.1690    -0.0550     3.2480 c3         1 NQG       0.128100
      8 OAL          5.7230    -1.2290     2.6730 oh         1 NQG      -0.541800
      9 CBK          5.4740    -0.0510     4.7400 c          1 NQG       0.558100
     10 OAJ          6.0450    -0.9850     5.3000 o          1 NQG      -0.585100
     11 N            5.0550     1.1110     5.3460 ns         1 NQG      -0.244900
     12 CA           5.2570     1.3540     6.7750 c3         1 NQG      -0.051300
     13 CB           6.6030     2.0550     7.0080 c3         1 NQG      -0.043400
     14 CAT          6.6790     3.4070     6.2910 c3         1 NQG       0.116700
     15 CAM          7.9440     4.0920     6.5900 c1         1 NQG       0.167700
     16 NAC          8.9410     4.6440     6.8100 n1         1 NQG      -0.345800
     17 C            4.0720     2.2050     7.2190 c          1 NQG       0.590100
     18 O            3.2080     2.5990     6.4390 o          1 NQG      -0.628100
     19 NBA          4.0870     2.4360     8.5760 ns         1 NQG      -0.213900
     20 CBQ          3.0280     3.2070     9.2310 c3         1 NQG      -0.055300
     21 CAX          2.8450     2.7250    10.6770 c3         1 NQG      -0.013400
     22 CAU          2.3400     1.2760    10.7400 c3         1 NQG      -0.027400
     23 CAV          2.0850     0.8050    12.1700 c3         1 NQG       0.166800
     24 NAZ          1.5700    -0.5430    12.1800 nu         1 NQG      -0.523200
     25 CBG          1.1790    -1.2750    13.2820 c2         1 NQG       0.254100
     26 NAE          1.2870    -0.6630    14.5070 nz         1 NQG       0.188400
     27 NAD          0.7280    -2.4950    13.1610 n2         1 NQG      -0.561100
     28 CBJ          3.4690     4.6640     9.1510 c          1 NQG       0.579100
     29 OAI          4.6500     5.0020     9.1890 o          1 NQG      -0.582100
     30 NBB          2.3960     5.5400     9.0660 ns         1 NQG      -0.208900
     31 CBR          2.5550     6.9740     9.0100 c3         1 NQG      -0.064300
     32 CBH          1.8990     7.5460    10.2590 c          1 NQG       0.311100
     33 OAG          0.8890     7.0750    10.7770 o          1 NQG      -0.398100
     34 NAF          2.5870     8.6220    10.7790 nz         1 NQG       0.175600
     35 CAY          1.9240     7.5800     7.7510 c3         1 NQG       0.087800
     36 CBM          2.7950     7.4200     6.5280 cc         1 NQG      -0.231400
     37 CBO          3.7690     8.3340     6.0950 ca         1 NQG      -0.078800
     38 CAQ          4.2510     9.5750     6.5570 ca         1 NQG      -0.092000
     39 CAO          5.2660    10.2220     5.8430 ca         1 NQG      -0.080000
     40 CAN          5.7990     9.6520     4.6880 ca         1 NQG      -0.072000
     41 CAP          5.3380     8.4220     4.2120 ca         1 NQG      -0.069000
     42 CBN          4.3210     7.7870     4.9360 ca         1 NQG      -0.237200
     43 NBD          3.6830     6.5890     4.7080 na         1 NQG       0.401600
     44 CAR          2.7470     6.3610     5.6810 cd         1 NQG      -0.233100
     45 HAA1        -0.3610    -0.8330     0.5910 hc         1 NQG       0.012367
     46 HAA2        -0.3610     0.9280     0.4260 hc         1 NQG       0.012367
     47 HAA3        -0.3610    -0.0950    -1.0170 hc         1 NQG       0.012367
     48 HAS1         1.8770    -0.8850    -0.5090 h1         1 NQG       0.012700
     49 HAS2         1.8770     0.8850    -0.5090 h1         1 NQG       0.012700
     50 HBT1         3.2550     0.8870     3.4400 hc         1 NQG       0.045200
     51 HBT2         3.2000    -0.8750     3.4430 hc         1 NQG       0.045200
     52 HBS          5.6320     0.8120     2.7920 h1         1 NQG       0.016700
     53 HOAL         6.6220    -1.0690     2.4370 ho         1 NQG       0.408000
     54 HN           4.6000     1.8110     4.7940 hn         1 NQG       0.207500
     55 HA           5.2440     0.4100     7.3070 h1         1 NQG       0.068700
     56 HB1          6.7370     2.2130     8.0710 hc         1 NQG       0.041200
     57 HB2          7.3990     1.4180     6.6430 hc         1 NQG       0.041200
     58 HAT1         6.6060     3.2470     5.2220 hc         1 NQG       0.027200
     59 HAT2         5.8530     4.0290     6.6150 hc         1 NQG       0.027200
     60 HNBA         4.8370     2.0680     9.1270 hn         1 NQG       0.204500
     61 HBQ          2.0990     3.0800     8.6870 h1         1 NQG       0.068700
     62 HAX1         3.7950     2.7890    11.1930 hc         1 NQG       0.025700
     63 HAX2         2.1300     3.3690    11.1750 hc         1 NQG       0.025700
     64 HAU1         1.4170     1.2030    10.1780 hc         1 NQG       0.037200
     65 HAU2         3.0800     0.6280    10.2860 hc         1 NQG       0.037200
     66 HAV1         1.3650     1.4650    12.6400 h1         1 NQG       0.010700
     67 HAV2         3.0130     0.8360    12.7270 h1         1 NQG       0.010700
     68 HNAZ         1.4870    -0.9950    11.2910 hn         1 NQG       0.331800
     69 HAE1         0.9930    -1.2980    15.2230 hn         1 NQG       0.226133
     70 HAE2         0.7060     0.1520    14.5250 hn         1 NQG       0.226133
     71 HNAD         0.6600    -2.9160    12.2560 hn         1 NQG       0.382400
     72 HNBB         1.4700     5.1600     9.0410 hn         1 NQG       0.204500
     73 HBR          3.6110     7.2130     9.0250 h1         1 NQG       0.084700
     74 HAF1         3.5650     8.4110    10.8060 hn         1 NQG       0.253467
     75 HAF2         2.2610     8.8100    11.7070 hn         1 NQG       0.253467
     76 HAY1         1.7510     8.6350     7.9200 hc         1 NQG       0.025200
     77 HAY2         0.9730     7.0940     7.5680 hc         1 NQG       0.025200
     78 HAQ          3.8410    10.0230     7.4540 ha         1 NQG       0.070000
     79 HAO          5.6410    11.1760     6.1910 ha         1 NQG       0.111000
     80 HAN          6.5840    10.1710     4.1510 ha         1 NQG       0.119000
     81 HAP          5.7500     7.9760     3.3140 ha         1 NQG       0.119000
     82 HNBD         3.8750     5.9740     3.9420 hn         1 NQG       0.124700
     83 HAR          2.2230     5.4290     5.8540 h4         1 NQG       0.153000
     84 HAE3         2.2380    -0.3940    14.6630 hn         1 NQG       0.226133
     85 HAF3         2.4270     9.4280    10.2090 hn         1 NQG       0.253467
@<TRIPOS>BOND
     1     1     2 1   
     2     1    45 1   
     3     1    46 1   
     4     1    47 1   
     5     2     3 1   
     6     2    48 1   
     7     2    49 1   
     8     3     4 1   
     9     4     5 2   
    10     4     6 1   
    11     6     7 1   
    12     6    50 1   
    13     6    51 1   
    14     7     8 1   
    15     7     9 1   
    16     7    52 1   
    17     8    53 1   
    18     9    10 2   
    19     9    11 1   
    20    11    12 1   
    21    11    54 1   
    22    12    13 1   
    23    12    17 1   
    24    12    55 1   
    25    13    14 1   
    26    13    56 1   
    27    13    57 1   
    28    14    15 1   
    29    14    58 1   
    30    14    59 1   
    31    15    16 3   
    32    17    18 2   
    33    17    19 1   
    34    19    20 1   
    35    19    60 1   
    36    20    21 1   
    37    20    28 1   
    38    20    61 1   
    39    21    22 1   
    40    21    62 1   
    41    21    63 1   
    42    22    23 1   
    43    22    64 1   
    44    22    65 1   
    45    23    24 1   
    46    23    66 1   
    47    23    67 1   
    48    24    25 1   
    49    24    68 1   
    50    25    26 1   
    51    25    27 2   
    52    26    69 1   
    53    26    70 1   
    54    26    84 1   
    55    27    71 1   
    56    28    29 2   
    57    28    30 1   
    58    30    31 1   
    59    30    72 1   
    60    31    32 1   
    61    31    35 1   
    62    31    73 1   
    63    32    33 2   
    64    32    34 1   
    65    34    74 1   
    66    34    75 1   
    67    34    85 1   
    68    35    36 1   
    69    35    76 1   
    70    35    77 1   
    71    36    37 1   
    72    36    44 2   
    73    37    38 ar  
    74    37    42 ar  
    75    38    39 ar  
    76    38    78 1   
    77    39    40 ar  
    78    39    79 1   
    79    40    41 ar  
    80    40    80 1   
    81    41    42 ar  
    82    41    81 1   
    83    42    43 1   
    84    43    44 1   
    85    43    82 1   
    86    44    83 1   
@<TRIPOS>SUBSTRUCTURE
     1 NQG         1 TEMP              0 ****  ****    0 ROOT
