@<TRIPOS>MOLECULE
NQI
   85    86     1     0     0
SMALL
bcc


@<TRIPOS>ATOM
      1 CAB          0.0000     0.0000     0.0000 c3         1 NQI      -0.005100
      2 CAS          1.5130     0.0000     0.0000 c3         1 NQI       0.214400
      3 OBD          1.9800     0.0000     1.3530 os         1 NQI      -0.421900
      4 CBK          3.3380    -0.0000     1.5080 c          1 NQI       0.691100
      5 OAK          4.1610    -0.0000     0.6030 o          1 NQI      -0.522000
      6 CBS          3.6610    -0.0090     2.9870 c3         1 NQI      -0.107400
      7 CBR          5.1680    -0.0550     3.2490 c3         1 NQI       0.133100
      8 OAL          5.7190    -1.2410     2.6940 oh         1 NQI      -0.531800
      9 CBJ          5.8770     1.1460     2.6350 c          1 NQI       0.575100
     10 OAJ          6.7240     1.0320     1.7510 o          1 NQI      -0.564100
     11 N            5.4450     2.3510     3.1700 ns         1 NQI      -0.238900
     12 CA           5.9590     3.6250     2.7320 c3         1 NQI      -0.041300
     13 CB           5.1160     4.2230     1.6010 c3         1 NQI       0.007800
     14 CAM          3.6950     4.4690     2.0200 c2         1 NQI      -0.203200
     15 CAA          2.6350     3.8860     1.4490 c2         1 NQI      -0.113000
     16 C            5.9670     4.5550     3.9390 c          1 NQI       0.601100
     17 O            5.5100     4.2370     5.0350 o          1 NQI      -0.630100
     18 NAZ          6.5860     5.7520     3.6480 ns         1 NQI      -0.219900
     19 CBP          6.7640     6.7960     4.6590 c3         1 NQI      -0.053300
     20 CAW          8.0280     7.6130     4.3530 c3         1 NQI      -0.018400
     21 CAT          9.3030     6.7640     4.4710 c3         1 NQI      -0.056400
     22 CAU         10.5740     7.5780     4.2390 c3         1 NQI       0.181800
     23 NAY         10.5940     8.1250     2.9040 nu         1 NQI      -0.504200
     24 CBF         11.0740     7.5150     1.7630 c2         1 NQI       0.238100
     25 NAE         11.5810     6.3110     1.8010 n2         1 NQI      -0.565100
     26 NAD         10.9930     8.2280     0.5950 nz         1 NQI       0.197400
     27 CBI          5.4950     7.6430     4.6050 c          1 NQI       0.580100
     28 OAI          4.8680     7.8290     3.5650 o          1 NQI      -0.590100
     29 NBB          5.1680     8.1850     5.8390 ns         1 NQI      -0.202900
     30 CBQ          4.0270     9.0480     6.0390 c3         1 NQI      -0.062300
     31 CBG          4.5620    10.4050     6.4730 c          1 NQI       0.305100
     32 OAG          5.5560    10.5530     7.1810 o          1 NQI      -0.391100
     33 NAF          3.8420    11.4560     5.9460 nz         1 NQI       0.176600
     34 CAX          3.0580     8.4940     7.0900 c3         1 NQI       0.087800
     35 CBL          2.5170     7.1340     6.7260 cc         1 NQI      -0.234400
     36 CBN          1.3490     6.8940     5.9850 ca         1 NQI      -0.049800
     37 CAQ          0.3660     7.7010     5.3770 ca         1 NQI      -0.104000
     38 CAO         -0.6940     7.0890     4.6980 ca         1 NQI      -0.109000
     39 CAN         -0.7850     5.7010     4.6190 ca         1 NQI      -0.089000
     40 CAP          0.1780     4.8810     5.2130 ca         1 NQI      -0.082000
     41 CBM          1.2320     5.5050     5.8890 ca         1 NQI      -0.230200
     42 NBC          2.3060     4.9620     6.5580 na         1 NQI       0.414600
     43 CAR          3.0950     5.9550     7.0710 cd         1 NQI      -0.231100
     44 HAB1        -0.3610    -0.8510     0.5640 hc         1 NQI       0.013033
     45 HAB2        -0.3610    -0.0630    -1.0190 hc         1 NQI       0.013033
     46 HAB3        -0.3610     0.9140     0.4550 hc         1 NQI       0.013033
     47 HAS1         1.8760     0.8850    -0.5090 h1         1 NQI       0.008700
     48 HAS2         1.8760    -0.8850    -0.5090 h1         1 NQI       0.008700
     49 HBS1         3.2530     0.8850     3.4410 hc         1 NQI       0.043700
     50 HBS2         3.1990    -0.8770     3.4420 hc         1 NQI       0.043700
     51 HBR          5.3390    -0.0550     4.3190 h1         1 NQI       0.007700
     52 HOAL         6.0450    -1.7900     3.3870 ho         1 NQI       0.391000
     53 HN           4.7500     2.3350     3.8910 hn         1 NQI       0.199500
     54 HA           6.9750     3.4930     2.3820 h1         1 NQI       0.056700
     55 HB1          5.1210     3.5400     0.7600 hc         1 NQI       0.030200
     56 HB2          5.5580     5.1630     1.2930 hc         1 NQI       0.030200
     57 HAM          3.5250     5.1610     2.8360 ha         1 NQI       0.097000
     58 HAA1         2.7750     3.1900     0.6310 ha         1 NQI       0.093500
     59 HAA2         1.6360     4.1110     1.8040 ha         1 NQI       0.093500
     60 HNAZ         6.9230     5.9120     2.7200 hn         1 NQI       0.194500
     61 HBP          6.8550     6.3410     5.6380 h1         1 NQI       0.071700
     62 HAW1         7.9590     8.0050     3.3450 hc         1 NQI       0.014200
     63 HAW2         8.0910     8.4400     5.0500 hc         1 NQI       0.014200
     64 HAT1         9.3420     6.3280     5.4620 hc         1 NQI       0.040200
     65 HAT2         9.2600     5.9660     3.7400 hc         1 NQI       0.040200
     66 HAU1        11.4370     6.9370     4.3750 h1         1 NQI       0.047700
     67 HAU2        10.6140     8.3880     4.9570 h1         1 NQI       0.047700
     68 HNAY        10.2370     9.0540     2.7980 hn         1 NQI       0.283800
     69 HNAE        11.6280     5.8130     2.6680 hn         1 NQI       0.382400
     70 HAD1        10.0340     8.4340     0.3940 hn         1 NQI       0.225467
     71 HAD2        11.3810     7.6880    -0.1530 hn         1 NQI       0.225467
     72 HNBB         5.7480     7.9700     6.6250 hn         1 NQI       0.205500
     73 HBQ          3.5000     9.1610     5.0990 h1         1 NQI       0.077700
     74 HAF1         3.8530    11.4010     4.9470 hn         1 NQI       0.252133
     75 HAF2         2.8960    11.4090     6.2720 hn         1 NQI       0.252133
     76 HAX1         3.5770     8.4210     8.0390 hc         1 NQI       0.023700
     77 HAX2         2.2290     9.1830     7.1980 hc         1 NQI       0.023700
     78 HAQ          0.0870     8.7460     5.4330 ha         1 NQI       0.100000
     79 HAO         -1.5150     7.6620     4.2850 ha         1 NQI       0.112000
     80 HAN         -1.6860     5.2820     4.1860 ha         1 NQI       0.116000
     81 HAP         -0.1140     3.8400     5.2820 ha         1 NQI       0.123000
     82 HNBC         2.4840     3.9820     6.6540 hn         1 NQI       0.126700
     83 HAR          4.0870     5.8300     7.4880 h4         1 NQI       0.147000
     84 HAD3        11.5090     9.0800     0.6860 hn         1 NQI       0.225467
     85 HAF3         4.2450    12.3210     6.2480 hn         1 NQI       0.252133
@<TRIPOS>BOND
     1     1     2 1   
     2     1    44 1   
     3     1    45 1   
     4     1    46 1   
     5     2     3 1   
     6     2    47 1   
     7     2    48 1   
     8     3     4 1   
     9     4     5 2   
    10     4     6 1   
    11     6     7 1   
    12     6    49 1   
    13     6    50 1   
    14     7     8 1   
    15     7     9 1   
    16     7    51 1   
    17     8    52 1   
    18     9    10 2   
    19     9    11 1   
    20    11    12 1   
    21    11    53 1   
    22    12    13 1   
    23    12    16 1   
    24    12    54 1   
    25    13    14 1   
    26    13    55 1   
    27    13    56 1   
    28    14    15 2   
    29    14    57 1   
    30    15    58 1   
    31    15    59 1   
    32    16    17 2   
    33    16    18 1   
    34    18    19 1   
    35    18    60 1   
    36    19    20 1   
    37    19    27 1   
    38    19    61 1   
    39    20    21 1   
    40    20    62 1   
    41    20    63 1   
    42    21    22 1   
    43    21    64 1   
    44    21    65 1   
    45    22    23 1   
    46    22    66 1   
    47    22    67 1   
    48    23    24 1   
    49    23    68 1   
    50    24    25 2   
    51    24    26 1   
    52    25    69 1   
    53    26    70 1   
    54    26    71 1   
    55    26    84 1   
    56    27    28 2   
    57    27    29 1   
    58    29    30 1   
    59    29    72 1   
    60    30    31 1   
    61    30    34 1   
    62    30    73 1   
    63    31    32 2   
    64    31    33 1   
    65    33    74 1   
    66    33    75 1   
    67    33    85 1   
    68    34    35 1   
    69    34    76 1   
    70    34    77 1   
    71    35    36 1   
    72    35    43 2   
    73    36    37 ar  
    74    36    41 ar  
    75    37    38 ar  
    76    37    78 1   
    77    38    39 ar  
    78    38    79 1   
    79    39    40 ar  
    80    39    80 1   
    81    40    41 ar  
    82    40    81 1   
    83    41    42 1   
    84    42    43 1   
    85    42    82 1   
    86    43    83 1   
@<TRIPOS>SUBSTRUCTURE
     1 NQI         1 TEMP              0 ****  ****    0 ROOT
