@<TRIPOS>MOLECULE
molecule
   85    86     1     0     0
SMALL
bcc


@<TRIPOS>ATOM
      1 CAB          0.0000     0.0000     0.0000 c3         1 NQI      -0.097100
      2 CAS          1.5130     0.0000     0.0000 c3         1 NQI       0.132400
      3 OBD          1.9800     0.0000     1.3530 os         1 NQI      -0.431900
      4 CBK          3.3380    -0.0000     1.5080 c          1 NQI       0.633100
      5 OAK          4.1610    -0.0000     0.6030 o          1 NQI      -0.488000
      6 CBS          3.6610    -0.0090     2.9870 c3         1 NQI      -0.148400
      7 CBR          5.1680    -0.0550     3.2490 c3         1 NQI       0.088100
      8 OAL          5.7190    -1.2410     2.6940 oh         1 NQI      -0.550800
      9 CBJ          5.8770     1.1460     2.6350 c          1 NQI       0.658100
     10 OAJ          6.7240     1.0320     1.7510 o          1 NQI      -0.534100
     11 N            5.4450     2.3510     3.1700 ns         1 NQI      -0.599900
     12 CA           5.9590     3.6250     2.7320 c3         1 NQI       0.055700
     13 CB           5.1160     4.2230     1.6010 c3         1 NQI      -0.057200
     14 CAM          3.6950     4.4690     2.0200 c2         1 NQI      -0.207200
     15 CAA          2.6350     3.8860     1.4490 c2         1 NQI      -0.183000
     16 C            5.9670     4.5550     3.9390 c          1 NQI       0.671100
     17 O            5.5100     4.2370     5.0350 o          1 NQI      -0.589100
     18 NAZ          6.5860     5.7520     3.6480 ns         1 NQI      -0.590900
     19 CBP          6.7640     6.7960     4.6590 c3         1 NQI       0.045700
     20 CAW          8.0280     7.6130     4.3530 c3         1 NQI      -0.086400
     21 CAT          9.3030     6.7640     4.4710 c3         1 NQI      -0.109400
     22 CAU         10.5740     7.5780     4.2390 c3         1 NQI       0.248800
     23 NAY         10.5940     8.1250     2.9040 nu         1 NQI      -0.863200
     24 CBF         11.0740     7.5150     1.7630 c2         1 NQI       0.687100
     25 NAE         11.5810     6.3110     1.8010 n2         1 NQI      -0.751100
     26 NAD         10.9930     8.2280     0.5950 nz         1 NQI      -0.806600
     27 CBI          5.4950     7.6430     4.6050 c          1 NQI       0.659100
     28 OAI          4.8680     7.8290     3.5650 o          1 NQI      -0.557100
     29 NBB          5.1680     8.1850     5.8390 ns         1 NQI      -0.583900
     30 CBQ          4.0270     9.0480     6.0390 c3         1 NQI       0.039700
     31 CBG          4.5620    10.4050     6.4730 c          1 NQI       0.468100
     32 OAG          5.5560    10.5530     7.1810 o          1 NQI      -0.396100
     33 NAF          3.8420    11.4560     5.9460 nz         1 NQI      -0.695400
     34 CAX          3.0580     8.4940     7.0900 c3         1 NQI       0.001800
     35 CBL          2.5170     7.1340     6.7260 cc         1 NQI      -0.212400
     36 CBN          1.3490     6.8940     5.9850 ca         1 NQI      -0.065800
     37 CAQ          0.3660     7.7010     5.3770 ca         1 NQI      -0.130000
     38 CAO         -0.6940     7.0890     4.6980 ca         1 NQI      -0.143000
     39 CAN         -0.7850     5.7010     4.6190 ca         1 NQI      -0.112000
     40 CAP          0.1780     4.8810     5.2130 ca         1 NQI      -0.129000
     41 CBM          1.2320     5.5050     5.8890 ca         1 NQI      -0.033200
     42 NBC          2.3060     4.9620     6.5580 na         1 NQI      -0.149400
     43 CAR          3.0950     5.9550     7.0710 cd         1 NQI      -0.054100
     44 HAB1        -0.3610     0.9290     0.4230 hc         1 NQI       0.049367
     45 HAB2        -0.3610    -0.8310     0.5930 hc         1 NQI       0.049367
     46 HAB3        -0.3610    -0.0980    -1.0170 hc         1 NQI       0.049367
     47 HAS1         1.8760    -0.8850    -0.5090 h1         1 NQI       0.047700
     48 HAS2         1.8760     0.8850    -0.5090 h1         1 NQI       0.047700
     49 HBS1         3.2530     0.8850     3.4410 hc         1 NQI       0.080700
     50 HBS2         3.1990    -0.8770     3.4420 hc         1 NQI       0.080700
     51 HBR          5.3390    -0.0550     4.3190 h1         1 NQI       0.049700
     52 HOAL         6.0680    -1.7790     3.3850 ho         1 NQI       0.411000
     53 HN           4.7520     2.3350     3.8920 hn         1 NQI       0.331500
     54 HA           6.9750     3.4930     2.3820 h1         1 NQI       0.086700
     55 HB1          5.5580     5.1630     1.2930 hc         1 NQI       0.059700
     56 HB2          5.1210     3.5400     0.7600 hc         1 NQI       0.059700
     57 HAM          3.5250     5.1610     2.8360 ha         1 NQI       0.119000
     58 HAA1         1.6360     4.1110     1.8040 ha         1 NQI       0.124500
     59 HAA2         2.7750     3.1900     0.6310 ha         1 NQI       0.124500
     60 HNAZ         6.9240     5.9110     2.7200 hn         1 NQI       0.327500
     61 HBP          6.8550     6.3410     5.6380 h1         1 NQI       0.099700
     62 HAW1         7.9590     8.0050     3.3450 hc         1 NQI       0.042200
     63 HAW2         8.0910     8.4400     5.0500 hc         1 NQI       0.042200
     64 HAT1         9.3420     6.3280     5.4620 hc         1 NQI       0.077200
     65 HAT2         9.2600     5.9660     3.7390 hc         1 NQI       0.077200
     66 HAU1        11.4370     6.9370     4.3750 h1         1 NQI       0.087700
     67 HAU2        10.6140     8.3880     4.9570 h1         1 NQI       0.087700
     68 HNAY        10.2250     9.0490     2.7970 hn         1 NQI       0.431800
     69 HNAE        11.9240     5.8850     0.9630 hn         1 NQI       0.451400
     70 HAD1        10.9500     7.5960    -0.1800 hn         1 NQI       0.470800
     71 HAD2        10.1700     8.7980     0.6060 hn         1 NQI       0.470800
     72 HNBB         5.7470     7.9680     6.6260 hn         1 NQI       0.342500
     73 HBQ          3.5000     9.1610     5.0990 h1         1 NQI       0.107700
     74 HAF1         2.9250    11.4670     6.3490 hn         1 NQI       0.477800
     75 HAF2         3.7690    11.3470     4.9540 hn         1 NQI       0.477800
     76 HAX1         3.5770     8.4210     8.0390 hc         1 NQI       0.058200
     77 HAX2         2.2290     9.1830     7.1980 hc         1 NQI       0.058200
     78 HAQ          0.0890     8.7470     5.4300 ha         1 NQI       0.125000
     79 HAO         -1.5040     7.6630     4.2650 ha         1 NQI       0.141000
     80 HAN         -1.6790     5.2820     4.1720 ha         1 NQI       0.147000
     81 HAP         -0.1120     3.8390     5.2830 ha         1 NQI       0.152000
     82 HNBC         2.4840     3.9820     6.6540 hn         1 NQI       0.313700
     83 HAR          3.8930     5.8260     7.7920 h4         1 NQI       0.177000
     84 HAD3        11.8040     8.8070     0.4990 hn         1 NQI       0.470800
     85 HAF3         4.3020    12.3180     6.1630 hn         1 NQI       0.477800
@<TRIPOS>BOND
     1     1     2 1
     2     1    44 1
     3     1    45 1
     4     1    46 1
     5     2     3 1
     6     2    47 1
     7     2    48 1
     8     3     4 1
     9     4     6 1
    10     4     5 2
    11     6     7 1
    12     6    49 1
    13     6    50 1
    14     7     8 1
    15     7     9 1
    16     7    51 1
    17     8    52 1
    18     9    11 1
    19     9    10 2
    20    11    12 1
    21    11    53 1
    22    12    16 1
    23    12    13 1
    24    12    54 1
    25    13    14 1
    26    13    55 1
    27    13    56 1
    28    14    15 2
    29    14    57 1
    30    15    58 1
    31    15    59 1
    32    16    17 2
    33    16    18 1
    34    18    19 1
    35    18    60 1
    36    19    27 1
    37    19    20 1
    38    19    61 1
    39    20    21 1
    40    20    62 1
    41    20    63 1
    42    21    22 1
    43    21    64 1
    44    21    65 1
    45    22    23 1
    46    22    66 1
    47    22    67 1
    48    23    24 1
    49    23    68 1
    50    24    26 1
    51    24    25 2
    52    25    69 1
    53    26    70 1
    54    26    71 1
    55    27    28 2
    56    27    29 1
    57    29    30 1
    58    29    72 1
    59    30    34 1
    60    30    31 1
    61    30    73 1
    62    31    32 2
    63    31    33 1
    64    33    74 1
    65    33    75 1
    66    34    35 1
    67    34    76 1
    68    34    77 1
    69    35    36 1
    70    35    43 2
    71    36    37 ar
    72    36    41 ar
    73    37    38 ar
    74    37    78 1
    75    38    39 ar
    76    38    79 1
    77    39    40 ar
    78    39    80 1
    79    40    41 ar
    80    40    81 1
    81    41    42 1
    82    42    43 1
    83    42    82 1
    84    43    83 1
    85    84    26 1
    86    85    33 1
@<TRIPOS>SUBSTRUCTURE
     1 NQI         1 TEMP              0 ****  ****    0 ROOT
