@<TRIPOS>MOLECULE
NQS
   26    27     1     0     0
SMALL
bcc


@<TRIPOS>ATOM
      1 C1          0.1180    0.0000   -0.0610 ca        1 NQS     -0.113000
      2 C2          1.5060    0.0000    0.0560 ca        1 NQS     -0.119000
      3 C3          2.1020    0.0000    1.3180 ca        1 NQS     -0.083000
      4 C4          1.3100    0.0000    2.4720 ca        1 NQS     -0.132600
      5 C5         -0.0900    0.0000    2.3520 ca        1 NQS     -0.126600
      6 C6         -0.6790    0.0000    1.0840 ca        1 NQS     -0.087000
      7 C7         -0.9450   -0.0000    3.5570 c         1 NQS      0.575900
      8 C8         -0.2540   -0.0000    4.8520 cc        1 NQS     -0.241200
      9 C9          1.0870   -0.0000    4.9920 cd        1 NQS     -0.054600
     10 C10         1.9740   -0.0000    3.7930 c         1 NQS      0.587900
     11 O1          3.2080   -0.0000    3.8910 o         1 NQS     -0.501100
     12 O2         -2.1820   -0.0000    3.4890 o         1 NQS     -0.519100
     13 S6          1.9230   -0.0000    6.4510 ss        1 NQS     -0.080700
     14 C11         0.6720   -0.0000    7.6920 c3        1 NQS     -0.075300
     15 C12         1.3930   -0.0000    9.0260 c3        1 NQS      0.143400
     16 O15         0.3860   -0.0000   10.0260 oh        1 NQS     -0.596800
     17 H1         -0.3540    0.0000   -1.0560 ha        1 NQS      0.142000
     18 H2          2.1380    0.0000   -0.8460 ha        1 NQS      0.142000
     19 H3          3.2000    0.0000    1.4190 ha        1 NQS      0.160000
     20 H6         -1.7790    0.0000    1.0050 ha        1 NQS      0.161000
     21 H4         -0.9310   -0.0000    5.7240 ha        1 NQS      0.157000
     22 H11         0.0140   -0.9010    7.6200 h1        1 NQS      0.087700
     23 H111        0.0140    0.9010    7.6200 h1        1 NQS      0.087700
     24 H12         2.0360    0.9160    9.1300 h1        1 NQS      0.038700
     25 H121        2.0360   -0.9160    9.1300 h1        1 NQS      0.038700
     26 H15         0.8430    0.0000   10.8760 ho        1 NQS      0.407000
@<TRIPOS>BOND
     1    1    2 ar  
     2    1    6 ar  
     3    1   17 1   
     4    2    3 ar  
     5    2   18 1   
     6    3    4 ar  
     7    3   19 1   
     8    4    5 ar  
     9    4   10 1   
    10    5    6 ar  
    11    5    7 1   
    12    6   20 1   
    13    7    8 1   
    14    7   12 2   
    15    8    9 2   
    16    8   21 1   
    17    9   10 1   
    18    9   13 1   
    19   10   11 2   
    20   13   14 1   
    21   14   15 1   
    22   14   22 1   
    23   14   23 1   
    24   15   16 1   
    25   15   24 1   
    26   15   25 1   
    27   16   26 1   
@<TRIPOS>SUBSTRUCTURE
     1 NQS         1 TEMP              0 ****  ****    0 ROOT
