@<TRIPOS>MOLECULE
NQS
   26    27     1     0     0
SMALL
bcc


@<TRIPOS>ATOM
      1 C1          0.1100   -0.0210   -0.0600 ca        1 NQS     -0.113000
      2 C2          1.4980   -0.0210    0.0540 ca        1 NQS     -0.119000
      3 C3          2.0960   -0.0100    1.3150 ca        1 NQS     -0.083000
      4 C4          1.3060    0.0000    2.4710 ca        1 NQS     -0.132600
      5 C5         -0.0940    0.0000    2.3530 ca        1 NQS     -0.126600
      6 C6         -0.6850   -0.0110    1.0870 ca        1 NQS     -0.087000
      7 C7         -0.9460    0.0110    3.5600 c         1 NQS      0.575900
      8 C8         -0.2530    0.0120    4.8540 cc        1 NQS     -0.241200
      9 C9          1.0880    0.0120    4.9910 cd        1 NQS     -0.054600
     10 C10         1.9730    0.0130    3.7900 c         1 NQS      0.587900
     11 O1          3.2060    0.0230    3.8870 o         1 NQS     -0.501100
     12 O2         -2.1830    0.0180    3.4940 o         1 NQS     -0.519100
     13 S6          1.9260    0.0100    6.4480 ss        1 NQS     -0.080700
     14 C11         0.6780    0.0070    7.6920 c3        1 NQS     -0.075300
     15 C12         1.4010    0.0030    9.0250 c3        1 NQS      0.143400
     16 O15         0.3960    0.0010   10.0270 oh        1 NQS     -0.596800
     17 H1         -0.3630   -0.0300   -1.0540 ha        1 NQS      0.142000
     18 H2          2.1280   -0.0290   -0.8480 ha        1 NQS      0.142000
     19 H3          3.1950   -0.0090    1.4150 ha        1 NQS      0.160000
     20 H6         -1.7860   -0.0100    1.0090 ha        1 NQS      0.161000
     21 H4         -0.9290    0.0130    5.7270 ha        1 NQS      0.157000
     22 H11         0.0190   -0.8930    7.6180 h1        1 NQS      0.087700
     23 H111        0.0190    0.9080    7.6230 h1        1 NQS      0.087700
     24 H12         2.0450    0.9190    9.1300 h1        1 NQS      0.038700
     25 H121        2.0440   -0.9130    9.1250 h1        1 NQS      0.038700
     26 H15         0.8550   -0.0010   10.8750 ho        1 NQS      0.407000
@<TRIPOS>BOND
     1    1    2 ar  
     2    1    6 ar  
     3    1   17 1   
     4    2    3 ar  
     5    2   18 1   
     6    3    4 ar  
     7    3   19 1   
     8    4    5 ar  
     9    4   10 1   
    10    5    6 ar  
    11    5    7 1   
    12    6   20 1   
    13    7    8 1   
    14    7   12 2   
    15    8    9 2   
    16    8   21 1   
    17    9   10 1   
    18    9   13 1   
    19   10   11 2   
    20   13   14 1   
    21   14   15 1   
    22   14   22 1   
    23   14   23 1   
    24   15   16 1   
    25   15   24 1   
    26   15   25 1   
    27   16   26 1   
@<TRIPOS>SUBSTRUCTURE
     1 NQS         1 TEMP              0 ****  ****    0 ROOT
