@<TRIPOS>MOLECULE
molecule
   26    27     1     0     0
SMALL
bcc


@<TRIPOS>ATOM
      1 C1           0.0000     0.0000     0.0000 ca         1 NQS      -0.113000
      2 C2           1.3820     0.0000     0.0000 ca         1 NQS      -0.119000
      3 C3           2.0820     0.0000     1.1960 ca         1 NQS      -0.076000
      4 C4           1.3900     0.0000     2.4010 ca         1 NQS      -0.137600
      5 C5          -0.0170     0.0000     2.4010 ca         1 NQS      -0.131600
      6 C6          -0.7040     0.0000     1.1950 ca         1 NQS      -0.081000
      7 C7          -0.7450    -0.0000     3.6900 c          1 NQS       0.577900
      8 C8          -0.0390    -0.0000     4.9140 cc         1 NQS      -0.247200
      9 C9           1.3170     0.0000     4.9520 cd         1 NQS      -0.008600
     10 C10          2.1060    -0.0000     3.6930 c          1 NQS       0.590900
     11 O1           3.3200    -0.0000     3.7270 o          1 NQS      -0.492100
     12 O2          -1.9620    -0.0000     3.6950 o          1 NQS      -0.515100
     13 S6           2.1480    -0.0000     6.5060 ss         1 NQS      -0.165700
     14 C11          0.7250    -0.0000     7.6240 c3         1 NQS      -0.036300
     15 C12          1.2150    -0.0000     9.0740 c3         1 NQS       0.156400
     16 O15          0.0900    -0.0000     9.9560 oh         1 NQS      -0.606800
     17 H1          -0.5370     0.0000    -0.9410 ha         1 NQS       0.139000
     18 H2           1.9200    -0.0000    -0.9400 ha         1 NQS       0.140000
     19 H3           3.1660     0.0000     1.1910 ha         1 NQS       0.156000
     20 H6          -1.7880     0.0000     1.1870 ha         1 NQS       0.158000
     21 H4          -0.5940    -0.0000     5.8440 ha         1 NQS       0.164000
     22 H11          0.1250    -0.8850     7.4460 h1         1 NQS       0.083700
     23 H111         0.1250     0.8850     7.4460 h1         1 NQS       0.083700
     24 H12          1.8140    -0.8850     9.2520 h1         1 NQS       0.033700
     25 H121         1.8140     0.8850     9.2520 h1         1 NQS       0.033700
     26 H15          0.3920    -0.0000    10.8490 ho         1 NQS       0.411000
@<TRIPOS>BOND
     1     1     2 ar
     2     1     6 ar
     3     2     3 ar
     4     3     4 ar
     5     4     5 ar
     6     4    10 1
     7     5     6 ar
     8     5     7 1
     9     7     8 1
    10     7    12 2
    11     8     9 2
    12     9    10 1
    13     9    13 1
    14    10    11 2
    15    13    14 1
    16    14    15 1
    17    15    16 1
    18     1    17 1
    19     2    18 1
    20     3    19 1
    21     6    20 1
    22     8    21 1
    23    14    22 1
    24    14    23 1
    25    15    24 1
    26    15    25 1
    27    16    26 1
@<TRIPOS>SUBSTRUCTURE
     1 NQS         1 TEMP              0 ****  ****    0 ROOT
