@<TRIPOS>MOLECULE
NR2
   40    41     1     0     0
SMALL
bcc


@<TRIPOS>ATOM
      1 S1           0.0000     0.0000     0.0000 sy         1 NR2       0.939200
      2 N24          1.6560     0.0000     0.0000 nz         1 NR2      -0.135500
      3 O23         -0.3860     0.0000     1.3680 o          1 NR2      -0.497800
      4 O22         -0.3860    -0.9710    -0.9630 o          1 NR2      -0.497800
      5 C2          -0.5260     1.5510    -0.6470 ca         1 NR2      -0.257500
      6 C7          -0.7330     2.6200     0.2060 ca         1 NR2       0.036000
      7 C6          -1.1410     3.8390    -0.2990 ca         1 NR2      -0.135500
      8 C5          -1.3550     3.9880    -1.6620 ca         1 NR2       0.035600
      9 N8          -1.7740     5.2210    -2.1760 ns         1 NR2      -0.057100
     10 C9          -2.6500     5.2620    -3.1980 c          1 NR2       0.635100
     11 O13         -3.1580     4.2360    -3.6060 o          1 NR2      -0.648100
     12 N10         -2.9640     6.4420    -3.7700 ns         1 NR2      -0.307300
     13 S11         -4.0420     6.4920    -5.0260 sy         1 NR2       1.054900
     14 O15         -4.1910     7.8670    -5.3530 o          1 NR2      -0.555800
     15 O14         -3.6330     5.4730    -5.9270 o          1 NR2      -0.555800
     16 C12         -5.6060     5.9780    -4.3990 ca         1 NR2      -0.179500
     17 C20         -5.9560     4.6410    -4.4260 ca         1 NR2       0.018000
     18 C19         -7.1820     4.2360    -3.9320 ca         1 NR2      -0.137500
     19 C18         -8.0620     5.1710    -3.4180 ca         1 NR2      -0.021300
     20 C21         -9.4000     4.7310    -2.8830 c3         1 NR2       0.053200
     21 C17         -7.7120     6.5070    -3.3890 ca         1 NR2      -0.137500
     22 C16         -6.4840     6.9110    -3.8800 ca         1 NR2       0.018000
     23 C4          -1.1460     2.9130    -2.5170 ca         1 NR2      -0.135500
     24 C3          -0.7320     1.6980    -2.0060 ca         1 NR2       0.036000
     25 H241         1.9900    -0.8700     0.3660 hn         1 NR2       0.313133
     26 H242         1.9900     0.7520     0.5700 hn         1 NR2       0.313133
     27 H7          -0.5670     2.5040     1.2700 ha         1 NR2       0.125500
     28 H6          -1.3030     4.6760     0.3700 ha         1 NR2       0.149000
     29 HN8         -1.4110     6.0720    -1.7940 hn         1 NR2       0.181500
     30 H10         -2.5240     7.2830    -3.4550 hn         1 NR2       0.227500
     31 H20         -5.2660     3.9090    -4.8290 ha         1 NR2       0.129000
     32 H19         -7.4560     3.1880    -3.9530 ha         1 NR2       0.116500
     33 H211        -9.6030     3.7170    -3.2070 hc         1 NR2       0.015033
     34 H212       -10.1730     5.3910    -3.2570 hc         1 NR2       0.015033
     35 H213        -9.3860     4.7670    -1.8000 hc         1 NR2       0.015033
     36 H17         -8.4010     7.2390    -2.9850 ha         1 NR2       0.116500
     37 H16         -6.2100     7.9590    -3.8580 ha         1 NR2       0.129000
     38 H4          -1.3090     3.0260    -3.5810 ha         1 NR2       0.149000
     39 H3          -0.5690     0.8590    -2.6720 ha         1 NR2       0.125500
     40 H243         1.9900     0.0710    -0.9410 hn         1 NR2       0.313133
@<TRIPOS>BOND
     1     1     2 1   
     2     1     3 2   
     3     1     4 2   
     4     1     5 1   
     5     2    25 1   
     6     2    26 1   
     7     2    40 1   
     8     5     6 ar  
     9     5    24 ar  
    10     6     7 ar  
    11     6    27 1   
    12     7     8 ar  
    13     7    28 1   
    14     8     9 1   
    15     8    23 ar  
    16     9    10 1   
    17     9    29 1   
    18    10    11 2   
    19    10    12 1   
    20    12    13 1   
    21    12    30 1   
    22    13    14 2   
    23    13    15 2   
    24    13    16 1   
    25    16    17 ar  
    26    16    22 ar  
    27    17    18 ar  
    28    17    31 1   
    29    18    19 ar  
    30    18    32 1   
    31    19    20 1   
    32    19    21 ar  
    33    20    33 1   
    34    20    34 1   
    35    20    35 1   
    36    21    22 ar  
    37    21    36 1   
    38    22    37 1   
    39    23    24 ar  
    40    23    38 1   
    41    24    39 1   
@<TRIPOS>SUBSTRUCTURE
     1 NR2         1 TEMP              0 ****  ****    0 ROOT
