@<TRIPOS>MOLECULE
molecule
   37    40     1     0     0
SMALL
bcc


@<TRIPOS>ATOM
      1 CAA          0.0000     0.0000     0.0000 ca         1 NR9      -0.099000
      2 CAB          1.4090     0.0000     0.0000 ca         1 NR9      -0.087800
      3 CAC          2.1110     0.0000     1.2000 ca         1 NR9      -0.090000
      4 CAD         -0.6970    -0.0020     1.1630 ca         1 NR9      -0.163300
      5 CAE         -0.0150    -0.0010     2.3960 ca         1 NR9       0.428600
      6 CAF          1.4030    -0.0020     2.4090 ca         1 NR9      -0.158300
      7 NAG         -0.6890    -0.0020     3.5490 nb         1 NR9      -0.681000
      8 CAH         -0.0670    -0.0020     4.7040 ca         1 NR9       0.438200
      9 CAI          2.0750    -0.0020     3.6480 ca         1 NR9      -0.073000
     10 CAJ          1.3230    -0.0010     4.7880 ca         1 NR9      -0.258300
     11 CAK          2.1410     0.0010    -1.2740 ce         1 NR9       0.020800
     12 CAL          3.4270     0.4290    -1.3180 cd         1 NR9      -0.121600
     13 CAM          4.3660     0.3800    -2.4520 c          1 NR9       0.730700
     14 NAN          5.5580     0.8730    -2.1980 nc         1 NR9      -0.788100
     15 CAO          5.8370     1.3610    -1.0120 cd         1 NR9       0.750100
     16 SAP          4.3750     1.1910    -0.0240 ss         1 NR9      -0.276800
     17 OAQ          4.0630    -0.0830    -3.5390 o          1 NR9      -0.522100
     18 NAR          7.0310     1.9010    -0.6140 nu         1 NR9      -0.815200
     19 CAS          8.1510     1.9770    -1.5540 c3         1 NR9       0.314100
     20 CAT          9.3370     2.6090    -0.8740 cd         1 NR9      -0.082400
     21 SAU          9.6890     4.3310    -0.8420 ss         1 NR9      -0.138800
     22 CAV         11.1400     4.0480     0.1090 cd         1 NR9      -0.059100
     23 CAW         11.2760     2.7420     0.3400 cc         1 NR9      -0.164000
     24 CAX         10.2780     1.9480    -0.1980 cc         1 NR9      -0.129000
     25 HAA         -0.5340     0.0000    -0.9420 ha         1 NR9       0.140000
     26 HAC          3.1940    -0.0000     1.2000 ha         1 NR9       0.156000
     27 HAD         -1.7800    -0.0020     1.1440 ha         1 NR9       0.154000
     28 HAH         -0.6500    -0.0010     5.6170 h4         1 NR9       0.025100
     29 HAI          3.1570    -0.0010     3.6940 ha         1 NR9       0.142000
     30 HAJ          1.8080    -0.0010     5.7570 ha         1 NR9       0.139000
     31 HAK          1.6900    -0.4430    -2.1540 ha         1 NR9       0.170000
     32 HNAR         7.1320     2.2620     0.3150 hn         1 NR9       0.464800
     33 HAS          8.4140     0.9790    -1.8840 h1         1 NR9       0.076200
     34 HASA         7.8650     2.5760    -2.4100 h1         1 NR9       0.076200
     35 HAV         11.8210     4.8170     0.4540 h4         1 NR9       0.175000
     36 HAW         12.1020     2.3330     0.9110 ha         1 NR9       0.153000
     37 HAX         10.2660     0.8700    -0.0850 ha         1 NR9       0.153000
@<TRIPOS>BOND
     1     1     4 ar
     2     1     2 ar
     3     1    25 1
     4    11     2 1
     5     2     3 ar
     6     3     6 ar
     7     3    26 1
     8     4     5 ar
     9     4    27 1
    10     5     7 ar
    11     5     6 ar
    12     6     9 ar
    13     7     8 ar
    14     8    10 ar
    15     8    28 1
    16     9    10 ar
    17     9    29 1
    18    10    30 1
    19    12    11 2
    20    11    31 1
    21    13    12 1
    22    12    16 1
    23    14    13 1
    24    17    13 2
    25    14    15 2
    26    18    15 1
    27    15    16 1
    28    19    18 1
    29    18    32 1
    30    19    20 1
    31    19    33 1
    32    19    34 1
    33    24    20 2
    34    20    21 1
    35    21    22 1
    36    23    22 2
    37    22    35 1
    38    24    23 1
    39    23    36 1
    40    24    37 1
@<TRIPOS>SUBSTRUCTURE
     1 NR9         1 TEMP              0 ****  ****    0 ROOT
