@<TRIPOS>MOLECULE
molecule
   27    29     1     0     0
SMALL
bcc


@<TRIPOS>ATOM
      1 C10          0.0000     0.0000     0.0000 ca         1 NRA      -0.065000
      2 C13          0.0270     0.0130     2.4050 ca         1 NRA       0.144100
      3 C15          1.4100     0.0100     2.4080 ca         1 NRA      -0.187000
      4 C02          6.2860     0.8880    -0.8820 ca         1 NRA       0.197100
      5 C03          5.7040     0.8900    -2.1460 ca         1 NRA      -0.279000
      6 C04          4.3600     0.5950    -2.2890 ca         1 NRA       0.229100
      7 O05          3.7900     0.5910    -3.5200 oh         1 NRA      -0.466100
      8 C06          3.5940     0.2990    -1.1550 ca         1 NRA      -0.270600
      9 C07          2.1550     0.0040    -1.2670 c          1 NRA       0.597300
     10 O08          1.6230    -0.2240    -2.3400 o          1 NRA      -0.503100
     11 C09          1.3960     0.0000     0.0000 ca         1 NRA      -0.224600
     12 C11         -0.6820     0.0060     1.2000 ca         1 NRA       0.055100
     13 O12         -2.0410     0.0040     1.2110 oh         1 NRA      -0.504100
     14 O14         -0.6500     0.0220     3.5830 oh         1 NRA      -0.507100
     15 C16          2.1110     0.0000     1.2080 ca         1 NRA       0.169100
     16 O17          3.4610    -0.0160     1.2180 os         1 NRA      -0.216200
     17 C18          4.1840     0.2870     0.1220 ca         1 NRA       0.211100
     18 C19          5.5330     0.5880     0.2430 ca         1 NRA      -0.219000
     19 H10         -0.5450    -0.0050    -0.9360 ha         1 NRA       0.170000
     20 H15          1.9480     0.0160     3.3490 ha         1 NRA       0.160000
     21 HO01         8.1130     0.3960    -0.8380 ho         1 NRA       0.432000
     22 H03          6.3050     1.1210    -3.0170 ha         1 NRA       0.151000
     23 HO05         4.1810     1.2650    -4.0510 ho         1 NRA       0.427000
     24 HO12        -2.3580     0.8700     1.0140 ho         1 NRA       0.424000
     25 HO14        -0.6220    -0.8380     3.9680 ho         1 NRA       0.431000
     26 H19          5.9990     0.5950     1.2210 ha         1 NRA       0.161000
     27 O01          7.6030     1.1840    -0.7490 oh         1 NRA      -0.518100
@<TRIPOS>BOND
     1     1    12 ar
     2     1    11 ar
     3     1    19 1
     4    12     2 ar
     5     2    14 1
     6     2     3 ar
     7    15     3 ar
     8     3    20 1
     9     4    27 1
    10    27    21 1
    11     5     4 ar
    12     4    18 ar
    13     6     5 ar
    14     5    22 1
    15     7     6 1
    16     6     8 ar
    17     7    23 1
    18     9     8 1
    19     8    17 ar
    20    10     9 2
    21     9    11 1
    22    11    15 ar
    23    13    12 1
    24    13    24 1
    25    14    25 1
    26    15    16 1
    27    17    16 1
    28    17    18 ar
    29    18    26 1
@<TRIPOS>SUBSTRUCTURE
     1 NRA         1 TEMP              0 ****  ****    0 ROOT
