@<TRIPOS>MOLECULE
NRA
   27    29     1     0     0
SMALL
bcc


@<TRIPOS>ATOM
      1 C10        -0.1660    0.4320   -0.1420 c1        1 NRA     -0.116000
      2 C13        -0.1310   -0.2530    2.2160 c2        1 NRA      0.196000
      3 C15         1.2930   -0.0520    2.2980 c2        1 NRA     -0.207000
      4 C02         6.2650    0.8330   -0.7800 ca        1 NRA      0.175000
      5 C03         5.7540    0.6300   -2.0700 ca        1 NRA     -0.289000
      6 C04         4.3790    0.4100   -2.2250 ca        1 NRA      0.200000
      7 O05         3.8180    0.2220   -3.4570 oh        1 NRA     -0.210000
      8 C06         3.5010    0.3970   -1.1170 ca        1 NRA     -0.279000
      9 C07         2.0560    0.1670   -1.2710 c2        1 NRA      0.321000
     10 O08         1.5430   -0.3860   -2.2380 o         1 NRA     -0.212000
     11 C09         1.2690    0.7220   -0.0940 c3        1 NRA     -0.177000
     12 C11        -0.8040   -0.0080    1.0190 c2        1 NRA     -0.142000
     13 O12        -2.1710   -0.2460    1.0370 oh        1 NRA     -0.289000
     14 O14        -0.7250   -0.6890    3.3540 oh        1 NRA     -0.225000
     15 C16         1.9550    0.3890    1.1910 c2        1 NRA      0.075000
     16 O17         3.3200    0.5850    1.3270 os        1 NRA     -0.140000
     17 C18         4.0640    0.6050    0.1540 ca        1 NRA      0.173000
     18 C19         5.4320    0.8250    0.3490 ca        1 NRA     -0.283000
     19 H10         1.3070    1.8600   -0.2130 hc        1 NRA      0.198000
     20 H15         1.8050   -0.2670    3.2470 ha        1 NRA      0.176000
     21 HO01        7.8430    1.1620    0.2480 ho        1 NRA      0.230000
     22 H03         6.4310    0.6420   -2.9340 ha        1 NRA      0.163000
     23 HO05        4.5270    0.2350   -4.1210 ho        1 NRA      0.229000
     24 HO12       -2.4860   -0.0950    0.1310 ho        1 NRA      0.251000
     25 HO14       -1.6760   -0.8120    3.1780 ho        1 NRA      0.260000
     26 H19         5.8300    0.9780    1.3600 ha        1 NRA      0.162000
     27 O01         7.6160    1.0400   -0.6880 oh        1 NRA     -0.238000
@<TRIPOS>BOND
     1    1   11 1   
     2    1   12 1   
     3    2    3 1   
     4    2   12 1   
     5    2   14 1   
     6    3   15 1   
     7    3   20 1   
     8    4    5 1   
     9    4   18 1   
    10    4   27 1   
    11    5    6 1   
    12    5   22 1   
    13    6    7 1   
    14    6    8 1   
    15    7   23 1   
    16    8    9 1   
    17    8   17 1   
    18    9   10 1   
    19    9   11 1   
    20   11   15 1   
    21   11   19 1   
    22   12   13 1   
    23   13   24 1   
    24   14   25 1   
    25   15   16 1   
    26   16   17 1   
    27   17   18 1   
    28   18   26 1   
    29   21   27 1   
@<TRIPOS>SUBSTRUCTURE
     1 NRA         1 TEMP              0 ****  ****    0 ROOT
