@<TRIPOS>MOLECULE
molecule
   30    29     1     0     0
SMALL
bcc


@<TRIPOS>ATOM
      1 OAK          0.0000     0.0000     0.0000 o          1 NRD      -0.799167
      2 PAI          1.6110     0.0000     0.0000 p5         1 NRD       0.952700
      3 OAL          2.1470     0.0000     1.5180 o          1 NRD      -0.799167
      4 OAJ          2.1040     1.2080    -0.6970 o          1 NRD      -0.799167
      5 CAG          2.2180    -1.4880    -0.8590 c3         1 NRD       0.107400
      6 PAM          4.0410    -1.4890    -0.8590 p5         1 NRD       0.952700
      7 OAO          4.5780    -2.8030    -1.6180 o          1 NRD      -0.799167
      8 OAP          4.5780    -0.1740    -1.6180 o          1 NRD      -0.799167
      9 OAN          4.5340    -1.4880     0.5360 o          1 NRD      -0.799167
     10 OAH          1.7420    -2.6550    -0.1860 oh         1 NRD      -0.589800
     11 CAF          1.7080    -1.4890    -2.3010 c3         1 NRD      -0.055400
     12 CAE          2.2180    -2.7380    -3.0230 c3         1 NRD      -0.119400
     13 CAC          1.7080    -2.7380    -4.4650 c3         1 NRD      -0.079400
     14 CAB          2.2180    -3.9880    -5.1870 c3         1 NRD      -0.079400
     15 CAA          1.7090    -3.9880    -6.6290 c3         1 NRD       0.034800
     16 NAD          2.1980    -5.1870    -7.3210 nz         1 NRD      -0.805600
     17 H5           1.7390    -2.5020     0.7450 ho         1 NRD       0.417000
     18 H6           2.0690    -0.6040    -2.8120 hc         1 NRD       0.053200
     19 H7           0.6250    -1.4890    -2.3010 hc         1 NRD       0.053200
     20 H8           1.8570    -3.6220    -2.5130 hc         1 NRD       0.086700
     21 H9           3.3010    -2.7370    -3.0230 hc         1 NRD       0.086700
     22 H10          0.6250    -2.7380    -4.4650 hc         1 NRD       0.016700
     23 H11          2.0690    -1.8540    -4.9760 hc         1 NRD       0.016700
     24 H12          3.3010    -3.9880    -5.1860 hc         1 NRD       0.038700
     25 H13          1.8570    -4.8720    -4.6760 hc         1 NRD       0.038700
     26 H14          2.0700    -3.1030    -7.1400 hx         1 NRD       0.020200
     27 H15          0.6250    -3.9870    -6.6290 hx         1 NRD       0.020200
     28 H16          1.8650    -5.1870    -8.2650 hn         1 NRD       0.208467
     29 H17          1.8640    -6.0040    -6.8490 hn         1 NRD       0.208467
     30 HAD3         3.1990    -5.1880    -7.3210 hn         1 NRD       0.208467
@<TRIPOS>BOND
     1    16    15 1
     2    15    14 1
     3    14    13 1
     4    13    12 1
     5    11    12 1
     6    11     5 1
     7     7     6 1
     8     8     6 1
     9     6     5 1
    10     6     9 1
    11     5    10 1
    12     5     2 1
    13     3     2 1
    14     2     4 1
    15     2     1 1
    16    10    17 1
    17    11    18 1
    18    11    19 1
    19    12    20 1
    20    12    21 1
    21    13    22 1
    22    13    23 1
    23    14    24 1
    24    14    25 1
    25    15    26 1
    26    15    27 1
    27    16    28 1
    28    16    29 1
    29    30    16 1
@<TRIPOS>SUBSTRUCTURE
     1 NRD         1 TEMP              0 ****  ****    0 ROOT
