@<TRIPOS>MOLECULE
NRF
   29    30     1     0     0
SMALL
bcc


@<TRIPOS>ATOM
      1 N            0.0000     0.0000     0.0000 nu         1 NRF      -0.374000
      2 C            1.4650     0.0000     0.0000 c3         1 NRF       0.186100
      3 O           -3.9710    -0.0100     2.4670 o          1 NRF      -0.679500
      4 Cl          -2.9650    -0.0120    -0.2850 cl         1 NRF       0.036600
      5 C1          -0.6930     0.0000     1.2000 cc         1 NRF      -0.038600
      6 N1          -2.0420     0.0010     3.5830 n          1 NRF       0.285000
      7 C2          -2.0760    -0.0050     1.2070 cd         1 NRF      -0.278800
      8 N2          -0.6440     0.0000     3.5560 nd         1 NRF      -0.492300
      9 C3          -2.7500    -0.0050     2.4370 c          1 NRF       0.607700
     10 C4           0.0060     0.0010     2.4250 cc         1 NRF       0.387500
     11 C5          -2.7120     0.0010     4.8110 ca         1 NRF      -0.093400
     12 C6          -3.7440     0.9020     5.0420 ca         1 NRF      -0.035000
     13 C7          -4.4030     0.8980     6.2560 ca         1 NRF      -0.100000
     14 C8          -4.0370    -0.0000     7.2410 ca         1 NRF      -0.037000
     15 C9          -3.0100    -0.8980     7.0140 ca         1 NRF      -0.208300
     16 C10         -2.3500    -0.9050     5.8020 ca         1 NRF      -0.030000
     17 C11         -2.6180    -1.8790     8.0890 c3         1 NRF       0.641200
     18 F           -1.6220    -1.3170     8.8930 f          1 NRF      -0.207633
     19 F1          -3.7360    -2.1810     8.8740 f          1 NRF      -0.207633
     20 F2          -2.1340    -3.0510     7.4960 f          1 NRF      -0.207633
     21 H1           1.8260    -0.0000    -1.0210 h1         1 NRF       0.012033
     22 H2           1.8260    -0.8840     0.5110 h1         1 NRF       0.012033
     23 H3           1.8260     0.8850     0.5100 h1         1 NRF       0.012033
     24 H5           1.0890     0.0000     2.4270 h4         1 NRF       0.014800
     25 H6          -4.0320     1.6060     4.2700 ha         1 NRF       0.129000
     26 H7          -5.2080     1.6000     6.4360 ha         1 NRF       0.114000
     27 H8          -4.5540     0.0010     8.1920 ha         1 NRF       0.117000
     28 H9          -1.5460    -1.6090     5.6260 ha         1 NRF       0.127000
     29 H10         -0.5000     0.0010    -0.8670 hn         1 NRF       0.306800
@<TRIPOS>BOND
     1     1     2 1   
     2     1     5 1   
     3     1    29 1   
     4     2    21 1   
     5     2    22 1   
     6     2    23 1   
     7     3     9 2   
     8     4     7 1   
     9     5     7 2   
    10     5    10 1   
    11     6     8 1   
    12     6     9 1   
    13     6    11 1   
    14     7     9 1   
    15     8    10 2   
    16    10    24 1   
    17    11    12 ar  
    18    11    16 ar  
    19    12    13 ar  
    20    12    25 1   
    21    13    14 ar  
    22    13    26 1   
    23    14    15 ar  
    24    14    27 1   
    25    15    16 ar  
    26    15    17 1   
    27    16    28 1   
    28    17    18 1   
    29    17    19 1   
    30    17    20 1   
@<TRIPOS>SUBSTRUCTURE
     1 NRF         1 TEMP              0 ****  ****    0 ROOT
