@<TRIPOS>MOLECULE
molecule
   21    23     1     0     0
SMALL
bcc


@<TRIPOS>ATOM
      1 C5           0.0000     0.0000     0.0000 ca         1 NRH      -0.195300
      2 C6           1.3780     0.0000     0.0000 ca         1 NRH       0.378200
      3 N1           2.0600     0.0000     1.1320 nb         1 NRH      -0.663000
      4 C2           1.4720     0.0010     2.3110 ca         1 NRH       0.398200
      5 C4          -0.6700     0.0070     1.2240 cp         1 NRH      -0.061000
      6 C9          -2.0850     0.0090     1.6280 cp         1 NRH      -0.098000
      7 C10         -3.2860     0.0050     0.9220 ca         1 NRH      -0.064000
      8 C11         -4.4820     0.0090     1.6050 ca         1 NRH      -0.164000
      9 C3           0.0860     0.0010     2.4090 ca         1 NRH      -0.123500
     10 N7          -0.7880     0.0010     3.4800 na         1 NRH      -0.186300
     11 C8          -2.0960     0.0160     3.0310 ca         1 NRH       0.011800
     12 C13         -3.3150     0.0220     3.7030 ca         1 NRH      -0.161000
     13 C12         -4.4950     0.0170     2.9920 ca         1 NRH      -0.089000
     14 H1          -0.5520     0.0000    -0.9320 ha         1 NRH       0.140000
     15 H2           1.9110    -0.0010    -0.9430 h4         1 NRH       0.025100
     16 H3           2.0750     0.0010     3.2110 h4         1 NRH       0.020100
     17 H4          -3.2800    -0.0010    -0.1610 ha         1 NRH       0.133000
     18 H5          -5.4170     0.0050     1.0570 ha         1 NRH       0.134000
     19 H6          -0.5130    -0.0080     4.4420 hn         1 NRH       0.301700
     20 H7          -3.3360     0.0290     4.7860 ha         1 NRH       0.130000
     21 H8          -5.4410     0.0210     3.5210 ha         1 NRH       0.134000
@<TRIPOS>BOND
     1    12    13 ar
     2    12    11 ar
     3    13     8 ar
     4    11    10 1
     5    11     6 ar
     6    10     9 1
     7     8     7 ar
     8     9     4 ar
     9     9     5 ar
    10     6     7 ar
    11     6     5 1
    12     4     3 ar
    13     5     1 ar
    14     3     2 ar
    15     1     2 ar
    16     1    14 1
    17     2    15 1
    18     4    16 1
    19     7    17 1
    20     8    18 1
    21    10    19 1
    22    12    20 1
    23    13    21 1
@<TRIPOS>SUBSTRUCTURE
     1 NRH         1 TEMP              0 ****  ****    0 ROOT
