@<TRIPOS>MOLECULE
NRH
   21    23     1     0     0
SMALL
bcc


@<TRIPOS>ATOM
      1 C5         -0.0270    0.0000   -0.0270 ca        1 NRH     -0.192300
      2 C6          1.3800   -0.0090    0.0140 ca        1 NRH      0.362200
      3 N1          2.1150   -0.0030    1.1460 nb        1 NRH     -0.646000
      4 C2          1.4820    0.0180    2.3300 ca        1 NRH      0.377200
      5 C4         -0.6990    0.0150    1.1870 cp        1 NRH     -0.043000
      6 C9         -2.0950    0.0200    1.5880 cp        1 NRH     -0.087000
      7 C10        -3.2940    0.0090    0.8890 ca        1 NRH     -0.069000
      8 C11        -4.4900    0.0060    1.6060 ca        1 NRH     -0.161000
      9 C3          0.0750    0.0290    2.4110 ca        1 NRH     -0.138500
     10 N7         -0.7820    0.1170    3.5220 na        1 NRH     -0.170300
     11 C8         -2.1030    0.0370    3.0350 ca        1 NRH     -0.009200
     12 C13        -3.3110    0.0320    3.7400 ca        1 NRH     -0.157000
     13 C12        -4.4940    0.0160    3.0050 ca        1 NRH     -0.095000
     14 H1         -0.5640   -0.0030   -0.9840 ha        1 NRH      0.146000
     15 H2          1.9640   -0.0230   -0.9240 h4        1 NRH      0.022100
     16 H3          2.1190    0.0290    3.2300 h4        1 NRH      0.025100
     17 H4         -3.2970    0.0040   -0.2100 ha        1 NRH      0.138000
     18 H5         -5.4470   -0.0040    1.0640 ha        1 NRH      0.135000
     19 H6         -0.5250   -0.2150    4.4170 hn        1 NRH      0.290700
     20 H7         -3.3290    0.0450    4.8380 ha        1 NRH      0.139000
     21 H8         -5.4560    0.0110    3.5410 ha        1 NRH      0.134000
@<TRIPOS>BOND
     1    1    2 ar  
     2    1    5 ar  
     3    1   14 1   
     4    2    3 ar  
     5    2   15 1   
     6    3    4 ar  
     7    4    9 ar  
     8    4   16 1   
     9    5    6 1   
    10    5    9 ar  
    11    6    7 ar  
    12    6   11 ar  
    13    7    8 ar  
    14    7   17 1   
    15    8   13 ar  
    16    8   18 1   
    17    9   10 1   
    18   10   11 1   
    19   10   19 1   
    20   11   12 ar  
    21   12   13 ar  
    22   12   20 1   
    23   13   21 1   
@<TRIPOS>SUBSTRUCTURE
     1 NRH         1 TEMP              0 ****  ****    0 ROOT
