@<TRIPOS>MOLECULE
NRM
   32    35     1     0     0
SMALL
bcc


@<TRIPOS>ATOM
      1 C1           0.0000     0.0000     0.0000 cc         1 NRM      -0.230100
      2 S1          -1.0050    -0.3100    -7.7680 ss         1 NRM       0.058200
      3 C2           0.8100    -0.2160    -3.1050 cc         1 NRM      -0.492600
      4 N2          -2.5540     0.0780    -2.3030 nd         1 NRM      -0.225600
      5 C3           0.8210    -0.2920    -4.4510 cd         1 NRM       0.484200
      6 N3          -0.3810    -0.0920    -2.4370 na         1 NRM       0.695700
      7 N4           0.6940    -0.0050     2.0780 na         1 NRM       0.464400
      8 C5          -1.4840    -0.1220    -4.5680 cc         1 NRM       0.568200
      9 N5           1.8160     0.0000     1.2420 nd         1 NRM      -0.648800
     10 C6          -1.5500    -0.0420    -3.1550 cc         1 NRM      -0.419600
     11 N6          -1.7400    -0.3300    -9.2970 nc         1 NRM      -0.417100
     12 C7          -0.7170     0.0020    -1.1160 cc         1 NRM      -0.277300
     13 N7          -0.3130    -0.2500    -5.1580 nd         1 NRM      -0.693000
     14 C8           1.4100     0.0000     0.0000 cc         1 NRM       0.372200
     15 C9          -2.0790     0.1060    -1.0600 cd         1 NRM       0.021600
     16 C10         -0.4110     0.0010     1.3030 cd         1 NRM      -0.251300
     17 C11         -2.4670    -0.1600    -6.8750 cc         1 NRM       0.098500
     18 C12         -3.4590    -0.1330    -7.8050 cd         1 NRM      -0.301300
     19 C14         -3.0230    -0.2280    -9.1090 cd         1 NRM       0.379600
     20 HN1         -3.5310     0.0470    -4.8740 hn         1 NRM       0.316800
     21 H2           1.7410    -0.2530    -2.5520 h4         1 NRM       0.157000
     22 H3           1.7660    -0.3980    -4.9690 h4         1 NRM      -0.007900
     23 H8           2.0460     0.0000    -0.8770 h4         1 NRM       0.009100
     24 H9          -2.6710     0.1970    -0.1580 h4         1 NRM       0.144000
     25 H10         -1.4370    -0.0040     1.6500 h4         1 NRM       0.151000
     26 H12         -4.5060    -0.0450    -7.5430 ha         1 NRM       0.135000
     27 H13         -4.6760    -1.0470   -10.1720 hc         1 NRM       0.015700
     28 H13A        -3.4420    -0.2980   -11.1950 hc         1 NRM       0.015700
     29 H13B        -4.5480     0.7150   -10.2580 hc         1 NRM       0.015700
     30 HN4          0.7080    -0.0060     3.0790 hn         1 NRM       0.148700
     31 N1          -2.6450    -0.0740    -5.3250 nu         1 NRM      -0.259300
     32 C13         -3.9910    -0.2140   -10.2650 c3         1 NRM      -0.027400
@<TRIPOS>BOND
     1     1    12 1   
     2     1    14 1   
     3     1    16 2   
     4     2    11 1   
     5     2    17 1   
     6     3     5 2   
     7     3     6 1   
     8     3    21 1   
     9     4    10 2   
    10     4    15 1   
    11     5    13 1   
    12     5    22 1   
    13     6    10 1   
    14     6    12 1   
    15     7     9 1   
    16     7    16 1   
    17     7    30 1   
    18     8    10 1   
    19     8    13 2   
    20     8    31 1   
    21     9    14 2   
    22    11    19 2   
    23    12    15 2   
    24    14    23 1   
    25    15    24 1   
    26    16    25 1   
    27    17    18 2   
    28    17    31 1   
    29    18    19 1   
    30    18    26 1   
    31    19    32 1   
    32    20    31 1   
    33    27    32 1   
    34    28    32 1   
    35    29    32 1   
@<TRIPOS>SUBSTRUCTURE
     1 NRM         1 TEMP              0 ****  ****    0 ROOT
