@<TRIPOS>MOLECULE
molecule
   31    33     1     0     0
SMALL
bcc


@<TRIPOS>ATOM
      1 N6           0.0000     0.0000     0.0000 nv         1 NRN      -1.006500
      2 C6           1.3840     0.0000     0.0000 ca         1 NRN       0.785200
      3 N1           2.0640     0.0000     1.1420 nb         1 NRN      -0.818000
      4 C5           2.1030    -0.0050    -1.2070 ca         1 NRN      -0.201200
      5 N7           1.7630    -0.0100    -2.5180 nc         1 NRN      -0.578100
      6 C8           2.8430    -0.0130    -3.2460 cd         1 NRN       0.409700
      7 N9           3.9450    -0.0100    -2.4440 na         1 NRN      -0.249000
      8 C4           3.5060    -0.0040    -1.1430 ca         1 NRN       0.465800
      9 N3           4.0990     0.0010     0.0460 nb         1 NRN      -0.784000
     10 C2           3.3840    -0.0000     1.1510 ca         1 NRN       0.733900
     11 C1A          5.3410    -0.0120    -2.8890 c3         1 NRN       0.038000
     12 C2A          5.6190    -1.2590    -3.7460 c3         1 NRN       0.118100
     13 O2A          6.6680    -2.0310    -3.1620 oh         1 NRN      -0.572800
     14 C5A          5.6120     1.2120    -3.7870 c3         1 NRN      -0.116400
     15 C4A          6.5830     0.6810    -4.8710 c3         1 NRN       0.133100
     16 O5A          6.5080     1.4790    -6.0530 oh         1 NRN      -0.602800
     17 C3A          6.0480    -0.7500    -5.1380 c3         1 NRN       0.129100
     18 O3A          7.0800    -1.5770    -5.6770 oh         1 NRN      -0.576800
     19 H1          -0.5000     0.5110    -0.7000 hn         1 NRN       0.448800
     20 H2          -0.5000    -0.5010     0.7080 hn         1 NRN       0.448800
     21 H3           2.8630    -0.0170    -4.3290 h5         1 NRN       0.078800
     22 H4           3.8990    -0.0000     2.1040 h5         1 NRN       0.062100
     23 H5           6.0070     0.0040    -2.0350 h1         1 NRN       0.117700
     24 H6           4.7180    -1.8540    -3.8330 h1         1 NRN       0.049700
     25 H7           6.3470    -2.8940    -2.9570 ho         1 NRN       0.409000
     26 H8           4.6910     1.5570    -4.2420 hc         1 NRN       0.069200
     27 H9           6.0800     2.0040    -3.2160 hc         1 NRN       0.069200
     28 H10          7.5960     0.6440    -4.4890 h1         1 NRN       0.070700
     29 H11          7.2990     1.9830    -6.1430 ho         1 NRN       0.411000
     30 H12          5.1950    -0.7150    -5.8050 h1         1 NRN       0.054700
     31 H13          6.7980    -1.9340    -6.5030 ho         1 NRN       0.403000
@<TRIPOS>BOND
     1    18    17 1
     2    16    15 1
     3    15    17 1
     4    15    14 1
     5    17    12 1
     6    13    12 1
     7    12    11 1
     8    14    11 1
     9    11     7 1
    10     9    10 ar
    11     9     8 ar
    12    10     3 ar
    13     7     8 1
    14     7     6 1
    15     8     4 ar
    16     3     2 ar
    17     6     5 2
    18     4     2 ar
    19     4     5 1
    20     2     1 1
    21     1    19 1
    22     1    20 1
    23     6    21 1
    24    10    22 1
    25    11    23 1
    26    12    24 1
    27    13    25 1
    28    14    26 1
    29    14    27 1
    30    15    28 1
    31    16    29 1
    32    17    30 1
    33    18    31 1
@<TRIPOS>SUBSTRUCTURE
     1 NRN         1 TEMP              0 ****  ****    0 ROOT
