@<TRIPOS>MOLECULE
NRO
   36    37     1     0     0
SMALL
bcc


@<TRIPOS>ATOM
      1 C1          0.3780   -0.5950   -0.3070 c3        1 NRO     -0.090100
      2 C2          1.8170   -0.6160    0.1370 c3        1 NRO     -0.089400
      3 C3          2.0380    0.3160    1.3140 c3        1 NRO     -0.026200
      4 C4          3.4730    0.3240    1.7430 c2        1 NRO     -0.181300
      5 C8          4.3340    1.2730    1.3200 ce        1 NRO     -0.103800
      6 C10         5.7410    1.3650    1.5430 cc        1 NRO      0.210500
      7 C14         7.8270    0.5700    1.7640 cc        1 NRO      0.410200
      8 C15         8.8430   -0.4540    1.7620 ca        1 NRO     -0.203500
      9 C16         8.6850   -1.6370    1.0270 ca        1 NRO     -0.055000
     10 C17        10.0330   -0.2290    2.4760 ca        1 NRO     -0.121000
     11 C19        10.8910   -2.3500    1.7000 ca        1 NRO     -0.081000
     12 C20         9.7150   -2.5810    0.9820 ca        1 NRO     -0.134600
     13 C21         9.5710   -3.8420    0.1370 c         1 NRO      0.910200
     14 N5          3.8730   -0.7820    2.6590 no        1 NRO      0.295100
     15 O6          4.6040   -0.5440    3.5810 o         1 NRO     -0.205000
     16 O7          3.3910   -1.8710    2.4920 o         1 NRO     -0.205000
     17 O11         6.4990    0.1820    1.5860 os        1 NRO     -0.323800
     18 C12         6.5760    2.4660    1.7070 cd        1 NRO     -0.194300
     19 C13         7.9060    1.9600    1.8620 cd        1 NRO     -0.315300
     20 C18        11.0460   -1.1800    2.4470 ca        1 NRO     -0.170000
     21 O22         8.5500   -3.9450   -0.5970 o         1 NRO     -0.824800
     22 O23        10.4910   -4.7040    0.2130 o         1 NRO     -0.824800
     23 H1         -0.2950   -0.9260    0.5200 hc        1 NRO      0.030367
     24 H1A         0.2340   -1.2840   -1.1750 hc        1 NRO      0.030367
     25 H1B         0.0710    0.4330   -0.6180 hc        1 NRO      0.030367
     26 H2          2.4820   -0.3090   -0.7140 hc        1 NRO      0.064700
     27 H2A         2.1130   -1.6590    0.4330 hc        1 NRO      0.064700
     28 H3          1.7430    1.3620    1.0330 hc        1 NRO      0.053700
     29 H3A         1.3770   -0.0000    2.1660 hc        1 NRO      0.053700
     30 H8          3.9240    2.1060    0.7140 ha        1 NRO      0.146000
     31 H16         7.7580   -1.8390    0.4640 ha        1 NRO      0.166000
     32 H17        10.1540    0.6960    3.0570 ha        1 NRO      0.110000
     33 H19        11.6850   -3.1140    1.6590 ha        1 NRO      0.156000
     34 H12         6.2810    3.5110    1.7210 ha        1 NRO      0.147000
     35 H13         8.8060    2.5470    2.0120 ha        1 NRO      0.159000
     36 H18        11.9730   -1.0080    3.0120 ha        1 NRO      0.111000
@<TRIPOS>BOND
     1    1    2 1
     2    1   23 1
     3    1   24 1
     4    1   25 1
     5    2    3 1
     6    2   26 1
     7    2   27 1
     8    3    4 1
     9    3   28 1
    10    3   29 1
    11    4    5 2
    12    4   14 1
    13    5    6 1
    14    5   30 1
    15    6   17 1
    16    6   18 2
    17    7    8 1
    18    7   17 1
    19    7   19 2
    20    8    9 ar
    21    8   10 ar
    22    9   12 ar
    23    9   31 1
    24   10   20 ar
    25   10   32 1
    26   11   12 ar
    27   11   20 ar
    28   11   33 1
    29   12   13 1
    30   13   21 1
    31   13   22 1
    32   14   15 1
    33   14   16 1
    34   18   19 1
    35   18   34 1
    36   19   35 1
    37   20   36 1
@<TRIPOS>SUBSTRUCTURE
     1 NRO         1 TEMP              0 ****  ****    0 ROOT
