@<TRIPOS>MOLECULE
molecule
   30    32     1     0     0
SMALL
bcc


@<TRIPOS>ATOM
      1 C2           0.0000     0.0000     0.0000 ca         1 NRT       0.981900
      2 C4           1.9970     0.0000     1.1440 ca         1 NRT       0.469800
      3 C5           1.2870     0.0010     2.3580 ca         1 NRT      -0.173200
      4 C4'         -3.1080     0.0020     4.3010 c3         1 NRT       0.125100
      5 O4'         -2.8980     1.2080     5.0670 os         1 NRT      -0.397600
      6 C3'         -5.2510     0.9450     4.9720 c3         1 NRT      -0.116400
      7 C2'         -4.5990     0.0420     3.9020 c3         1 NRT      -0.109400
      8 N9           3.3260    -0.0010     1.4840 na         1 NRT      -0.362000
      9 N3           1.3230     0.0000     0.0000 nb         1 NRT      -0.787000
     10 N2          -0.6690    -0.0000    -1.2130 nv         1 NRT      -1.056500
     11 N1          -0.7090     0.0060     1.1220 nb         1 NRT      -0.846000
     12 C6          -0.1160     0.0020     2.3080 ca         1 NRT       0.741600
     13 O6          -0.8470     0.0020     3.4460 os         1 NRT      -0.372100
     14 C60         -2.2210     0.0020     3.0550 c3         1 NRT       0.131400
     15 C14         -4.0770     1.3460     5.8910 c3         1 NRT       0.122400
     16 N7           2.2030     0.0010     3.3570 nc         1 NRT      -0.555100
     17 C8           3.4000     0.0010     2.8470 cd         1 NRT       0.412700
     18 H4'         -2.9080    -0.8690     4.9130 h1         1 NRT       0.055700
     19 H3'1        -5.9960     0.3920     5.5300 hc         1 NRT       0.052200
     20 H3'2        -5.6860     1.8240     4.5100 hc         1 NRT       0.052200
     21 H2'1        -4.7140     0.4790     2.9170 hc         1 NRT       0.054700
     22 H2'2        -5.0260    -0.9520     3.9360 hc         1 NRT       0.054700
     23 H9           4.1000    -0.0010     0.8490 hn         1 NRT       0.314700
     24 H2N1        -0.8990    -0.8670    -1.6570 hn         1 NRT       0.445300
     25 H2N2        -0.8980     0.8660    -1.6590 hn         1 NRT       0.445300
     26 H601        -2.4280     0.8860     2.4650 h1         1 NRT       0.066200
     27 H602        -2.4280    -0.8830     2.4650 h1         1 NRT       0.066200
     28 H141        -4.0220     0.6770     6.7410 h1         1 NRT       0.051200
     29 H142        -4.1890     2.3730     6.2170 h1         1 NRT       0.051200
     30 H8           4.3200     0.0020     3.4190 h5         1 NRT       0.081800
@<TRIPOS>BOND
     1     1     9 ar
     2     1    10 1
     3     1    11 ar
     4     2     3 ar
     5     2     8 1
     6     2     9 ar
     7     3    12 ar
     8     3    16 1
     9     4     5 1
    10     4     7 1
    11     4    14 1
    12     4    18 1
    13     5    15 1
    14     6     7 1
    15     6    15 1
    16     6    19 1
    17     6    20 1
    18     7    21 1
    19     7    22 1
    20     8    17 1
    21     8    23 1
    22    10    24 1
    23    10    25 1
    24    11    12 ar
    25    12    13 1
    26    13    14 1
    27    14    26 1
    28    14    27 1
    29    15    28 1
    30    15    29 1
    31    16    17 2
    32    17    30 1
@<TRIPOS>SUBSTRUCTURE
     1 NRT         1 TEMP              0 ****  ****    0 ROOT
