@<TRIPOS>MOLECULE
molecule
  100    99     1     0     0
SMALL
bcc


@<TRIPOS>ATOM
      1 C39          0.0000     0.0000     0.0000 c3         1 NS0      -0.087600
      2 C38          1.5300     0.0000     0.0000 c3         1 NS0      -0.077700
      3 C40          2.0400     0.0000     1.4410 c3         1 NS0      -0.087600
      4 C37          2.0390    -1.2500    -0.7220 c3         1 NS0      -0.077400
      5 C36          1.6340    -1.1900    -2.1960 c3         1 NS0      -0.077400
      6 C35          2.1430    -2.4390    -2.9160 c3         1 NS0      -0.040200
      7 C33          1.7440    -2.3800    -4.3680 c2         1 NS0      -0.123400
      8 C34          0.3820    -2.8640    -4.7960 c3         1 NS0      -0.052900
      9 C32          2.5800    -1.9070    -5.2590 c2         1 NS0      -0.186200
     10 C31          2.1390    -1.7300    -6.6890 c3         1 NS0      -0.045200
     11 C30          2.2430    -0.2550    -7.0770 c3         1 NS0      -0.040200
     12 C28          1.8020    -0.0780    -8.5070 c2         1 NS0      -0.088400
     13 C29          2.7830    -0.2950    -9.6300 c3         1 NS0      -0.060900
     14 C27          0.5400     0.2690    -8.7790 ce         1 NS0      -0.170000
     15 C26          0.1250     0.4340   -10.1240 cf         1 NS0      -0.092000
     16 C25         -1.1570     0.7880   -10.4000 ce         1 NS0      -0.158000
     17 C23         -1.5700     0.9520   -11.7350 ce         1 NS0      -0.023200
     18 C24         -0.5890     0.7350   -12.8590 c3         1 NS0      -0.071900
     19 C22         -2.8580     1.3060   -12.0120 cf         1 NS0      -0.181000
     20 C21         -3.2690     1.4710   -13.3430 cf         1 NS0      -0.050000
     21 C20         -4.5680     1.8280   -13.6230 ce         1 NS0      -0.187000
     22 C19         -4.9790     1.9920   -14.9520 ce         1 NS0      -0.386000
     23 C17         -6.2780     2.3500   -15.2320 cf         1 NS0      -0.049200
     24 C18         -7.2590     2.5670   -14.1090 c3         1 NS0      -0.111900
     25 C16         -6.6880     2.5140   -16.5610 cf         1 NS0      -0.037000
     26 C15         -7.9880     2.8720   -16.8410 ce         1 NS0      -0.178000
     27 C14         -8.3980     3.0350   -18.1720 ce         1 NS0      -0.388000
     28 C12         -9.6870     3.3900   -18.4490 cf         1 NS0      -0.033200
     29 C13        -10.6670     3.6070   -17.3260 c3         1 NS0      -0.115900
     30 C11        -10.0990     3.5540   -19.7840 cf         1 NS0      -0.046000
     31 C10        -11.3810     3.9070   -20.0610 ce         1 NS0      -0.174000
     32 C9         -11.7960     4.0730   -21.4050 ce         1 NS0      -0.465000
     33 C7         -13.0580     4.4210   -21.6770 c2         1 NS0       0.011600
     34 C8         -14.0390     4.6360   -20.5540 c3         1 NS0      -0.122900
     35 C          -13.5000     4.5970   -23.1070 c3         1 NS0      -0.068200
     36 CA         -14.1350     3.2980   -23.6080 c3         1 NS0      -0.089200
     37 CB         -14.5770     3.4740   -25.0380 c2         1 NS0      -0.521200
     38 CG         -14.1010     2.6880   -25.9730 c2         1 NS0       0.036600
     39 CD2        -13.0130     1.6990   -25.6420 c3         1 NS0      -0.094900
     40 CD1        -14.6420     2.7730   -27.3760 c3         1 NS0      -0.094900
     41 H1          -0.3610     0.4150    -0.9330 hc         1 NS0       0.033533
     42 H2          -0.3610    -1.0160     0.1070 hc         1 NS0       0.033533
     43 H3          -0.3610     0.6000     0.8260 hc         1 NS0       0.033533
     44 H4           1.8910     0.8840    -0.5110 hc         1 NS0       0.048700
     45 H5           1.6480    -0.8640     1.9630 hc         1 NS0       0.033533
     46 H6           3.1230    -0.0390     1.4410 hc         1 NS0       0.033533
     47 H7           1.7120     0.9030     1.9410 hc         1 NS0       0.033533
     48 H8           3.1190    -1.2960    -0.6460 hc         1 NS0       0.041700
     49 H9           1.6070    -2.1320    -0.2640 hc         1 NS0       0.041700
     50 H10          0.5540    -1.1440    -2.2710 hc         1 NS0       0.044700
     51 H11          2.0650    -0.3080    -2.6530 hc         1 NS0       0.044700
     52 H12          3.2230    -2.4840    -2.8390 hc         1 NS0       0.046700
     53 H13          1.7110    -3.3210    -2.4580 hc         1 NS0       0.046700
     54 H15         -0.2180    -2.0200    -5.1130 hc         1 NS0       0.041700
     55 H16         -0.1030    -3.3600    -3.9640 hc         1 NS0       0.041700
     56 H17          0.4890    -3.5610    -5.6190 hc         1 NS0       0.041700
     57 H18          3.5580    -1.5580    -4.9500 ha         1 NS0       0.125000
     58 H20          1.1120    -2.0590    -6.7930 hc         1 NS0       0.051200
     59 H21          2.7740    -2.3200    -7.3380 hc         1 NS0       0.051200
     60 H22          3.2700     0.0740    -6.9730 hc         1 NS0       0.052200
     61 H23          3.7540    -0.5390    -9.2190 hc         1 NS0       0.046367
     62 H24          2.8580     0.6090   -10.2230 hc         1 NS0       0.046367
     63 H25          2.4400    -1.1100   -10.2570 hc         1 NS0       0.046367
     64 H26         -0.1650     0.4240    -7.9710 ha         1 NS0       0.132000
     65 H28          0.8300     0.2790   -10.9310 ha         1 NS0       0.134000
     66 H30         -1.8620     0.9440    -9.5930 ha         1 NS0       0.135000
     67 H32         -0.5360    -0.3210   -13.0930 hc         1 NS0       0.053367
     68 H33         -0.9150     1.2840   -13.7340 hc         1 NS0       0.053367
     69 H34          0.3900     1.0880   -12.5560 hc         1 NS0       0.053367
     70 H35         -3.5630     1.4610   -11.2040 ha         1 NS0       0.133000
     71 H36         -2.5630     1.3170   -14.1500 ha         1 NS0       0.157000
     72 H38         -5.2740     1.9820   -12.8160 ha         1 NS0       0.103000
     73 H40         -5.1960     1.1190   -14.3470 ha         1 NS0       0.310000
     74 H42         -7.8750     1.6830   -13.9910 hc         1 NS0       0.047033
     75 H43         -6.7190     2.7550   -13.1890 hc         1 NS0       0.047033
     76 H44         -7.8890     3.4180   -14.3380 hc         1 NS0       0.047033
     77 H45         -5.9830     2.3580   -17.3690 ha         1 NS0       0.175000
     78 H46         -8.6930     3.0270   -16.0340 ha         1 NS0       0.101000
     79 H48         -8.1610     3.8520   -17.5010 ha         1 NS0       0.306000
     80 H51        -11.6720     3.4110   -17.6810 hc         1 NS0       0.047367
     81 H52        -10.6000     4.6310   -16.9790 hc         1 NS0       0.047367
     82 H53        -10.4360     2.9330   -16.5090 hc         1 NS0       0.047367
     83 H54         -9.3940     3.3990   -20.5910 ha         1 NS0       0.175000
     84 H56        -12.0860     4.0630   -19.2530 ha         1 NS0       0.100000
     85 H58        -12.0130     3.2010   -20.8010 ha         1 NS0       0.321000
     86 H61        -14.1810     3.7070   -20.0150 hc         1 NS0       0.051033
     87 H62        -13.6540     5.3910   -19.8780 hc         1 NS0       0.051033
     88 H63        -14.9870     4.9660   -20.9610 hc         1 NS0       0.051033
     89 H64        -14.2250     5.3990   -23.1650 hc         1 NS0       0.071700
     90 H65        -12.6420     4.8400   -23.7230 hc         1 NS0       0.071700
     91 H66        -13.4100     2.4960   -23.5500 hc         1 NS0       0.058200
     92 H67        -14.9930     3.0550   -22.9930 hc         1 NS0       0.058200
     93 H68        -13.6530     3.9050   -24.6710 ha         1 NS0       0.340000
     94 H71        -13.3600     1.0250   -24.8680 hc         1 NS0       0.052533
     95 H72        -12.7600     1.1310   -26.5290 hc         1 NS0       0.052533
     96 H73        -12.1360     2.2310   -25.2920 hc         1 NS0       0.052533
     97 H74        -13.8460     3.0590   -28.0530 hc         1 NS0       0.052533
     98 H75        -15.0380     1.8090   -27.6700 hc         1 NS0       0.052533
     99 H76        -15.4310     3.5140   -27.4150 hc         1 NS0       0.052533
    100 H14          1.6080     0.3350    -6.4280 hc         1 NS0       0.052200
@<TRIPOS>BOND
     1    40    38 1
     2    37    38 2
     3    37    36 1
     4    39    38 1
     5    35    36 1
     6    35    33 1
     7    33    34 1
     8    33    32 2
     9    32    31 1
    10    30    31 2
    11    30    28 1
    12    29    28 1
    13    28    27 2
    14    27    26 1
    15    26    25 2
    16    25    23 1
    17    24    23 1
    18    23    22 2
    19    22    21 1
    20    21    20 2
    21    20    19 1
    22    19    17 2
    23    17    18 1
    24    17    16 1
    25    16    15 2
    26    15    14 1
    27    14    12 2
    28    12    11 1
    29    12    13 1
    30    11    10 1
    31    10     9 1
    32     9     7 2
    33     4     5 1
    34     4     2 1
    35     7     6 1
    36     7     8 1
    37     5     6 1
    38     3     2 1
    39     2     1 1
    40     1    41 1
    41     1    42 1
    42     1    43 1
    43     2    44 1
    44     3    45 1
    45     3    46 1
    46     3    47 1
    47     4    48 1
    48     4    49 1
    49     5    50 1
    50     5    51 1
    51     6    52 1
    52     6    53 1
    53     8    54 1
    54     8    55 1
    55     8    56 1
    56     9    57 1
    57    10    58 1
    58    10    59 1
    59    11    60 1
    60    13    61 1
    61    13    62 1
    62    13    63 1
    63    14    64 1
    64    15    65 1
    65    16    66 1
    66    18    67 1
    67    18    68 1
    68    18    69 1
    69    19    70 1
    70    20    71 1
    71    21    72 1
    72    22    73 1
    73    24    74 1
    74    24    75 1
    75    24    76 1
    76    25    77 1
    77    26    78 1
    78    27    79 1
    79    29    80 1
    80    29    81 1
    81    29    82 1
    82    30    83 1
    83    31    84 1
    84    32    85 1
    85    34    86 1
    86    34    87 1
    87    34    88 1
    88    35    89 1
    89    35    90 1
    90    36    91 1
    91    36    92 1
    92    37    93 1
    93    39    94 1
    94    39    95 1
    95    39    96 1
    96    40    97 1
    97    40    98 1
    98    40    99 1
    99    11   100 1
@<TRIPOS>SUBSTRUCTURE
     1 NS0         1 TEMP              0 ****  ****    0 ROOT
