@<TRIPOS>MOLECULE
NS1
  100   100     1     0     0
SMALL
bcc


@<TRIPOS>ATOM
      1 C1          3.8540   -1.9860   -0.0680 c3        1 NS1     -0.067700
      2 CM1         4.0950   -0.7830    0.8210 c3        1 NS1     -0.089600
      3 CM2         3.6950   -3.2340    0.7770 c3        1 NS1     -0.089600
      4 C2          2.6280   -1.7900   -0.9480 c3        1 NS1     -0.076400
      5 C3          2.8890   -0.8340   -2.0920 c3        1 NS1     -0.075400
      6 C4          1.6590   -0.6890   -2.9690 c3        1 NS1     -0.041200
      7 C5          1.8830    0.2770   -4.0820 c2        1 NS1     -0.121400
      8 C6          1.8520    1.7150   -3.7250 c3        1 NS1     -0.058900
      9 C7          2.0790   -0.1430   -5.3430 c2        1 NS1     -0.176200
     10 C8          2.2970    0.7760   -6.4840 c3        1 NS1     -0.041200
     11 C9          2.3040    0.0390   -7.8110 c3        1 NS1     -0.043200
     12 C10         2.5000    0.9720   -8.9590 c2        1 NS1     -0.050400
     13 C11         1.2970    1.7220   -9.3990 c3        1 NS1     -0.057900
     14 C12         3.6650    1.1150   -9.5630 cu        1 NS1     -0.185400
     15 C13         4.4470    1.7890  -10.6000 cx        1 NS1     -0.083200
     16 C14         5.0950    0.7800   -9.6630 cx        1 NS1     -0.043300
     17 C15         5.5690   -0.5220  -10.1650 c2        1 NS1     -0.072400
     18 C16         4.8890   -1.7200   -9.6150 c3        1 NS1     -0.060900
     19 C17         6.5900   -0.6410  -11.0360 ce        1 NS1     -0.145000
     20 C18         7.3180    0.4700  -11.6060 ce        1 NS1     -0.123000
     21 C19         8.4080    0.3580  -12.3820 cf        1 NS1     -0.132000
     22 C20         9.0810   -0.8630  -12.7740 cf        1 NS1     -0.131000
     23 C21         8.5750   -1.8580  -13.5280 ce        1 NS1     -0.079200
     24 C22         7.2010   -1.8400  -14.0920 c3        1 NS1     -0.062900
     25 C23         9.3650   -3.0230  -13.9000 ce        1 NS1     -0.125000
     26 C24        10.2490   -3.6830  -13.1320 cf        1 NS1     -0.126000
     27 C25        10.5380   -3.3850  -11.7490 cf        1 NS1     -0.134000
     28 C26        11.6650   -3.7280  -11.0850 ce        1 NS1     -0.070200
     29 C27        12.8110   -4.4230  -11.7200 c3        1 NS1     -0.061900
     30 C28        11.7840   -3.3990   -9.6730 ce        1 NS1     -0.127000
     31 C29        12.8080   -3.7690   -8.8810 cf        1 NS1     -0.124000
     32 C30        12.8720   -3.4180   -7.4810 cf        1 NS1     -0.147000
     33 C31        13.8680   -3.7810   -6.6480 c2        1 NS1     -0.100400
     34 C32        15.0290   -4.5940   -7.0830 c3        1 NS1     -0.063900
     35 C33        13.8580   -3.3590   -5.2180 c3        1 NS1     -0.043200
     36 C34        13.5440   -4.5220   -4.2940 c3        1 NS1     -0.042200
     37 C35        13.5780   -4.1220   -2.8680 c2        1 NS1     -0.179200
     38 C36        13.2100   -4.9340   -1.8640 c2        1 NS1     -0.122400
     39 CM3        12.7250   -6.3150   -2.1020 c3        1 NS1     -0.058400
     40 CM4        13.2620   -4.5000   -0.4480 c3        1 NS1     -0.058400
     41 H1          4.7530   -2.1210   -0.7340 hc        1 NS1      0.046700
     42 HM11        3.2230   -0.6130    1.4970 hc        1 NS1      0.033033
     43 HM12        4.2500    0.1350    0.2060 hc        1 NS1      0.033033
     44 HM13        5.0030   -0.9450    1.4510 hc        1 NS1      0.033033
     45 HM21        4.5870   -3.3740    1.4330 hc        1 NS1      0.033033
     46 HM22        2.7880   -3.1550    1.4240 hc        1 NS1      0.033033
     47 HM23        3.5880   -4.1350    0.1260 hc        1 NS1      0.033033
     48 H21         1.7780   -1.4090   -0.3240 hc        1 NS1      0.039200
     49 H22         2.3140   -2.7830   -1.3660 hc        1 NS1      0.039200
     50 H31         3.7470   -1.2080   -2.7110 hc        1 NS1      0.043200
     51 H32         3.1830    0.1720   -1.6900 hc        1 NS1      0.043200
     52 H41         0.7960   -0.3340   -2.3440 hc        1 NS1      0.044200
     53 H42         1.3790   -1.6960   -3.3790 hc        1 NS1      0.044200
     54 H61         0.9070    2.1830   -4.1010 hc        1 NS1      0.041033
     55 H62         1.9010    1.8610   -2.6180 hc        1 NS1      0.041033
     56 H63         2.7140    2.2560   -4.1920 hc        1 NS1      0.041033
     57 H7          2.0890   -1.2190   -5.5790 ha        1 NS1      0.122000
     58 H81         3.2770    1.3120   -6.3500 hc        1 NS1      0.050200
     59 H82         1.4960    1.5650   -6.4940 hc        1 NS1      0.050200
     60 H91         1.3290   -0.5030   -7.9420 hc        1 NS1      0.049700
     61 H92         3.1190   -0.7350   -7.8010 hc        1 NS1      0.049700
     62 H111        0.8580    2.2850   -8.5370 hc        1 NS1      0.044033
     63 H112        0.5240    1.0100   -9.7820 hc        1 NS1      0.044033
     64 H113        1.5420    2.4490  -10.2100 hc        1 NS1      0.044033
     65 H12         4.6950    2.8600  -10.4840 hc        1 NS1      0.076700
     66 H13         4.2950    1.5120  -11.6600 hc        1 NS1      0.076700
     67 H14         5.7670    1.1790   -8.8690 hc        1 NS1      0.090700
     68 H161        5.2650   -2.6600  -10.0860 hc        1 NS1      0.045367
     69 H162        3.7860   -1.6480   -9.7920 hc        1 NS1      0.045367
     70 H163        5.0620   -1.7830   -8.5110 hc        1 NS1      0.045367
     71 H17         6.9230   -1.6450  -11.3580 ha        1 NS1      0.132000
     72 H18         6.9310    1.4760  -11.3570 ha        1 NS1      0.126000
     73 H19         8.9060    1.2760  -12.7480 ha        1 NS1      0.126000
     74 H20        10.1340   -0.9200  -12.4340 ha        1 NS1      0.136000
     75 H221        6.6350   -2.7420  -13.7520 hc        1 NS1      0.046033
     76 H222        7.2450   -1.8540  -15.2100 hc        1 NS1      0.046033
     77 H223        6.6420   -0.9280  -13.7670 hc        1 NS1      0.046033
     78 H23         9.1810   -3.3820  -14.9300 ha        1 NS1      0.124000
     79 H24        10.7780   -4.5510  -13.5640 ha        1 NS1      0.124000
     80 H25         9.7390   -2.8390  -11.2110 ha        1 NS1      0.132000
     81 H271       12.9170   -5.4540  -11.2960 hc        1 NS1      0.044033
     82 H272       12.6910   -4.5100  -12.8270 hc        1 NS1      0.044033
     83 H273       13.7590   -3.8630  -11.5210 hc        1 NS1      0.044033
     84 H28        10.9510   -2.8070   -9.2530 ha        1 NS1      0.124000
     85 H29        13.6480   -4.3650   -9.2780 ha        1 NS1      0.124000
     86 H30        12.0340   -2.8100   -7.0970 ha        1 NS1      0.124000
     87 H321       14.6880   -5.5720   -7.5050 hc        1 NS1      0.043700
     88 H322       15.6060   -4.0550   -7.8760 hc        1 NS1      0.043700
     89 H323       15.7200   -4.8040   -6.2300 hc        1 NS1      0.043700
     90 H331       14.8640   -2.9330   -4.9550 hc        1 NS1      0.048200
     91 H332       13.1020   -2.5450   -5.0550 hc        1 NS1      0.048200
     92 H341       12.5300   -4.9380   -4.5460 hc        1 NS1      0.050200
     93 H342       14.2860   -5.3500   -4.4670 hc        1 NS1      0.050200
     94 H351       13.9310   -3.0990   -2.6590 ha        1 NS1      0.122000
     95 HM31       12.5990   -6.8730   -1.1430 hc        1 NS1      0.040700
     96 HM32       13.4460   -6.8770   -2.7480 hc        1 NS1      0.040700
     97 HM33       11.7380   -6.2900   -2.6300 hc        1 NS1      0.040700
     98 HM41       12.2480   -4.5860    0.0170 hc        1 NS1      0.040700
     99 HM42       13.9660   -5.1520    0.1280 hc        1 NS1      0.040700
    100 HM43       13.6050   -3.4410   -0.3520 hc        1 NS1      0.040700
@<TRIPOS>BOND
     1    1    2 1   
     2    1    3 1   
     3    1    4 1   
     4    1   41 1   
     5    2   42 1   
     6    2   43 1   
     7    2   44 1   
     8    3   45 1   
     9    3   46 1   
    10    3   47 1   
    11    4    5 1   
    12    4   48 1   
    13    4   49 1   
    14    5    6 1   
    15    5   50 1   
    16    5   51 1   
    17    6    7 1   
    18    6   52 1   
    19    6   53 1   
    20    7    8 1   
    21    7    9 2   
    22    8   54 1   
    23    8   55 1   
    24    8   56 1   
    25    9   10 1   
    26    9   57 1   
    27   10   11 1   
    28   10   58 1   
    29   10   59 1   
    30   11   12 1   
    31   11   60 1   
    32   11   61 1   
    33   12   13 1   
    34   12   14 2   
    35   13   62 1   
    36   13   63 1   
    37   13   64 1   
    38   14   15 1   
    39   14   16 1   
    40   15   16 1   
    41   15   65 1   
    42   15   66 1   
    43   16   17 1   
    44   16   67 1   
    45   17   18 1   
    46   17   19 2   
    47   18   68 1   
    48   18   69 1   
    49   18   70 1   
    50   19   20 1   
    51   19   71 1   
    52   20   21 2   
    53   20   72 1   
    54   21   22 1   
    55   21   73 1   
    56   22   23 2   
    57   22   74 1   
    58   23   24 1   
    59   23   25 1   
    60   24   75 1   
    61   24   76 1   
    62   24   77 1   
    63   25   26 2   
    64   25   78 1   
    65   26   27 1   
    66   26   79 1   
    67   27   28 2   
    68   27   80 1   
    69   28   29 1   
    70   28   30 1   
    71   29   81 1   
    72   29   82 1   
    73   29   83 1   
    74   30   31 2   
    75   30   84 1   
    76   31   32 1   
    77   31   85 1   
    78   32   33 2   
    79   32   86 1   
    80   33   34 1   
    81   33   35 1   
    82   34   87 1   
    83   34   88 1   
    84   34   89 1   
    85   35   36 1   
    86   35   90 1   
    87   35   91 1   
    88   36   37 1   
    89   36   92 1   
    90   36   93 1   
    91   37   38 2   
    92   37   94 1   
    93   38   39 1   
    94   38   40 1   
    95   39   95 1   
    96   39   96 1   
    97   39   97 1   
    98   40   98 1   
    99   40   99 1   
   100   40  100 1   
@<TRIPOS>SUBSTRUCTURE
     1 NS1         1 TEMP              0 ****  ****    0 ROOT
