@<TRIPOS>MOLECULE
molecule
  100    99     1     0     0
SMALL
bcc


@<TRIPOS>ATOM
      1 C1           0.0000     0.0000     0.0000 c3         1 NS1      -0.077700
      2 CM1          1.5290     0.0000     0.0000 c3         1 NS1      -0.087600
      3 CM2         -0.5110     0.0000     1.4420 c3         1 NS1      -0.087600
      4 C2          -0.5100     1.2490    -0.7220 c3         1 NS1      -0.077400
      5 C3          -0.1050     1.1880    -2.1960 c3         1 NS1      -0.077400
      6 C4          -0.6140     2.4360    -2.9180 c3         1 NS1      -0.041200
      7 C5          -0.2150     2.3760    -4.3700 c2         1 NS1      -0.118400
      8 C6           1.1470     2.8600    -4.7980 c3         1 NS1      -0.054900
      9 C7          -1.0510     1.9010    -5.2590 c2         1 NS1      -0.190200
     10 C8          -0.6090     1.7250    -6.6900 c3         1 NS1      -0.044200
     11 C9          -0.7140     0.2480    -7.0760 c3         1 NS1      -0.045200
     12 C10         -0.2720     0.0710    -8.5070 c2         1 NS1      -0.062400
     13 C11         -1.2530     0.2870    -9.6300 c3         1 NS1      -0.067900
     14 C12          0.9900    -0.2760    -8.7780 ce         1 NS1      -0.189000
     15 C13          1.4050    -0.4420   -10.1230 ce         1 NS1      -0.040000
     16 C14          2.6880    -0.7950   -10.3990 cf         1 NS1      -0.242000
     17 C15          3.1000    -0.9600   -11.7340 cf         1 NS1       0.084800
     18 C16          2.1190    -0.7450   -12.8570 c3         1 NS1      -0.066900
     19 C17          4.3890    -1.3150   -12.0110 ce         1 NS1      -0.458000
     20 C18          5.3010    -1.5150   -10.9650 ce         1 NS1      -0.076000
     21 C19          6.6000    -1.8730   -11.2450 cf         1 NS1      -0.153000
     22 C20          7.5120    -2.0720   -10.2000 cf         1 NS1      -0.404000
     23 C21          8.8120    -2.4300   -10.4800 ce         1 NS1      -0.043200
     24 C22          9.2540    -2.6070   -11.9100 c3         1 NS1      -0.115900
     25 C23          9.7230    -2.6310    -9.4360 ce         1 NS1      -0.042000
     26 C24         11.0230    -2.9890    -9.7150 cf         1 NS1      -0.166000
     27 C25         11.9350    -3.1880    -8.6700 cf         1 NS1      -0.390000
     28 C26         13.2240    -3.5430    -8.9460 ce         1 NS1      -0.029200
     29 C27         13.6650    -3.7200   -10.3770 c3         1 NS1      -0.116900
     30 C28         14.1390    -3.7430    -7.8980 ce         1 NS1      -0.048000
     31 C29         15.4210    -4.0970    -8.1740 cf         1 NS1      -0.171000
     32 C30         16.3440    -4.2990    -7.1170 cf         1 NS1      -0.463000
     33 C31         17.6060    -4.6460    -7.3880 c2         1 NS1       0.013600
     34 C32         18.0470    -4.8230    -8.8180 c3         1 NS1      -0.122900
     35 C33         18.5870    -4.8610    -6.2640 c3         1 NS1      -0.069200
     36 C34         18.6390    -6.3490    -5.9110 c3         1 NS1      -0.089200
     37 C35         19.6200    -6.5640    -4.7870 c2         1 NS1      -0.519200
     38 C36         19.2200    -7.1070    -3.6640 c2         1 NS1       0.035600
     39 CM3         17.7570    -7.3950    -3.4440 c3         1 NS1      -0.094900
     40 CM4         20.2240    -7.4460    -2.5920 c3         1 NS1      -0.094900
     41 H1          -0.3610    -0.8850    -0.5110 hc         1 NS1       0.048700
     42 HM11         1.8900    -0.6000     0.8270 hc         1 NS1       0.033700
     43 HM12         1.8900    -0.4160    -0.9330 hc         1 NS1       0.033700
     44 HM13         1.8900     1.0160     0.1060 hc         1 NS1       0.033700
     45 HM21        -0.1800    -0.9020     1.9430 hc         1 NS1       0.033700
     46 HM22        -1.5940     0.0350     1.4410 hc         1 NS1       0.033700
     47 HM23        -0.1220     0.8660     1.9630 hc         1 NS1       0.033700
     48 H21         -1.5890     1.2940    -0.6450 hc         1 NS1       0.041700
     49 H22         -0.0780     2.1310    -0.2650 hc         1 NS1       0.041700
     50 H31          0.9750     1.1420    -2.2720 hc         1 NS1       0.044700
     51 H32         -0.5360     0.3050    -2.6530 hc         1 NS1       0.044700
     52 H41         -1.6940     2.4820    -2.8420 hc         1 NS1       0.047200
     53 H42         -0.1830     3.3190    -2.4610 hc         1 NS1       0.047200
     54 H61          1.6330     3.3530    -3.9640 hc         1 NS1       0.042700
     55 H62          1.0400     3.5600    -5.6180 hc         1 NS1       0.042700
     56 H63          1.7470     2.0170    -5.1180 hc         1 NS1       0.042700
     57 H7          -2.0290     1.5530    -4.9500 ha         1 NS1       0.126000
     58 H81         -1.2450     2.3140    -7.3400 hc         1 NS1       0.052200
     59 H82          0.4180     2.0540    -6.7950 hc         1 NS1       0.052200
     60 H91         -1.7410    -0.0800    -6.9730 hc         1 NS1       0.056200
     61 H92         -0.0790    -0.3410    -6.4260 hc         1 NS1       0.056200
     62 H111        -2.2270     0.5220    -9.2190 hc         1 NS1       0.050367
     63 H112        -1.3210    -0.6150   -10.2280 hc         1 NS1       0.050367
     64 H113        -0.9150     1.1070   -10.2520 hc         1 NS1       0.050367
     65 H12          1.6950    -0.4300    -7.9700 ha         1 NS1       0.141000
     66 H13          0.7000    -0.2880   -10.9310 ha         1 NS1       0.135000
     67 H14          3.3930    -0.9490    -9.5910 ha         1 NS1       0.145000
     68 H161         1.2890    -1.4320   -12.7480 hc         1 NS1       0.058367
     69 H162         1.7520     0.2740   -12.8250 hc         1 NS1       0.058367
     70 H163         2.6120    -0.9220   -13.8050 hc         1 NS1       0.058367
     71 H17          4.8810    -0.5180   -11.4680 ha         1 NS1       0.283000
     72 H18          4.9840    -1.3880    -9.9370 ha         1 NS1       0.119000
     73 H19          6.9180    -2.0000   -12.2730 ha         1 NS1       0.126000
     74 H20          7.0190    -2.8700   -10.7430 ha         1 NS1       0.304000
     75 H221        10.2590    -2.2210   -12.0270 hc         1 NS1       0.049367
     76 H222         9.2400    -3.6600   -12.1640 hc         1 NS1       0.049367
     77 H223         8.5810    -2.0680   -12.5660 hc         1 NS1       0.049367
     78 H23          9.4050    -2.5030    -8.4080 ha         1 NS1       0.175000
     79 H24         11.3410    -3.1150   -10.7430 ha         1 NS1       0.101000
     80 H25         11.8950    -2.2980    -9.2850 ha         1 NS1       0.302000
     81 H271        14.4910    -4.4200   -10.4160 hc         1 NS1       0.047700
     82 H272        12.8400    -4.1030   -10.9650 hc         1 NS1       0.047700
     83 H273        13.9820    -2.7650   -10.7780 hc         1 NS1       0.047700
     84 H28         13.8210    -3.6160    -6.8700 ha         1 NS1       0.176000
     85 H29         15.7380    -4.2250    -9.2020 ha         1 NS1       0.101000
     86 H30         15.8520    -5.0970    -7.6600 ha         1 NS1       0.319000
     87 H321        17.8570    -3.9110    -9.3700 hc         1 NS1       0.051700
     88 H322        17.4950    -5.6390    -9.2680 hc         1 NS1       0.051700
     89 H323        19.1070    -5.0470    -8.8440 hc         1 NS1       0.051700
     90 H331        18.2720    -4.2940    -5.3970 hc         1 NS1       0.072700
     91 H332        19.5710    -4.5290    -6.5750 hc         1 NS1       0.072700
     92 H341        18.9540    -6.9160    -6.7780 hc         1 NS1       0.058200
     93 H342        17.6550    -6.6810    -5.6000 hc         1 NS1       0.058200
     94 H351        18.9700    -5.6970    -4.8180 ha         1 NS1       0.339000
     95 HM31        17.6200    -7.8420    -2.4670 hc         1 NS1       0.052533
     96 HM32        17.4040    -8.0780    -4.2070 hc         1 NS1       0.052533
     97 HM33        17.1950    -6.4700    -3.4990 hc         1 NS1       0.052533
     98 HM41        20.1560    -8.5010    -2.3540 hc         1 NS1       0.052533
     99 HM42        20.0160    -6.8620    -1.7040 hc         1 NS1       0.052533
    100 HM43        21.2220    -7.2200    -2.9470 hc         1 NS1       0.052533
@<TRIPOS>BOND
     1     1     2 1
     2     1     3 1
     3     1     4 1
     4     1    41 1
     5     2    42 1
     6     2    43 1
     7     2    44 1
     8     3    45 1
     9     3    46 1
    10     3    47 1
    11     4     5 1
    12     4    48 1
    13     4    49 1
    14     5     6 1
    15     5    50 1
    16     5    51 1
    17     6     7 1
    18     6    52 1
    19     6    53 1
    20     7     8 1
    21     7     9 2
    22     8    54 1
    23     8    55 1
    24     8    56 1
    25     9    10 1
    26     9    57 1
    27    10    11 1
    28    10    58 1
    29    10    59 1
    30    11    12 1
    31    11    60 1
    32    11    61 1
    33    12    13 1
    34    12    14 2
    35    13    62 1
    36    13    63 1
    37    13    64 1
    38    14    15 1
    39    14    65 1
    40    15    16 2
    41    15    66 1
    42    16    17 1
    43    16    67 1
    44    17    18 1
    45    17    19 2
    46    18    68 1
    47    18    69 1
    48    18    70 1
    49    19    20 1
    50    19    71 1
    51    20    21 2
    52    20    72 1
    53    21    22 1
    54    21    73 1
    55    22    23 2
    56    22    74 1
    57    23    24 1
    58    23    25 1
    59    24    75 1
    60    24    76 1
    61    24    77 1
    62    25    26 2
    63    25    78 1
    64    26    27 1
    65    26    79 1
    66    27    28 2
    67    27    80 1
    68    28    29 1
    69    28    30 1
    70    29    81 1
    71    29    82 1
    72    29    83 1
    73    30    31 2
    74    30    84 1
    75    31    32 1
    76    31    85 1
    77    32    33 2
    78    32    86 1
    79    33    34 1
    80    33    35 1
    81    34    87 1
    82    34    88 1
    83    34    89 1
    84    35    36 1
    85    35    90 1
    86    35    91 1
    87    36    37 1
    88    36    92 1
    89    36    93 1
    90    37    38 2
    91    37    94 1
    92    38    39 1
    93    38    40 1
    94    39    95 1
    95    39    96 1
    96    39    97 1
    97    40    98 1
    98    40    99 1
    99    40   100 1
@<TRIPOS>SUBSTRUCTURE
     1 NS1         1 TEMP              0 ****  ****    0 ROOT
