@<TRIPOS>MOLECULE
molecule
   56    59     1     0     0
SMALL
bcc


@<TRIPOS>ATOM
      1 C2           0.0000     0.0000     0.0000 c3         1 NS3      -0.069400
      2 C3           1.5490     0.0000     0.0000 c3         1 NS3      -0.083400
      3 C4           1.9280     0.0000     1.4950 c3         1 NS3      -0.083400
      4 C5           0.7250    -0.5890     2.2530 c3         1 NS3      -0.069400
      5 C1          -0.3420    -0.9280     1.1920 c3         1 NS3      -0.098700
      6 C6          -1.7430    -0.6210     1.7250 c3         1 NS3       0.500700
      7 N2          -2.7290    -0.8480     0.6710 nu         1 NS3      -0.759600
      8 N1          -2.0490    -1.5150     2.8600 n7         1 NS3      -0.938100
      9 S1          -2.0610    -3.1480     2.5150 sy         1 NS3       1.418200
     10 O1          -2.9460    -3.7570     3.4460 o          1 NS3      -0.625800
     11 O2          -0.7070    -3.5430     2.3470 o          1 NS3      -0.625800
     12 C7          -2.8290    -3.2670     0.9270 ca         1 NS3      -0.365500
     13 C9          -3.1890    -4.5010     0.4290 ca         1 NS3       0.100000
     14 C8          -3.0600    -2.1120     0.1920 ca         1 NS3       0.260600
     15 C12         -3.6520    -2.2200    -1.0660 ca         1 NS3      -0.185000
     16 C11         -4.0090    -3.4570    -1.5620 ca         1 NS3       0.084700
     17 C13         -4.6500    -3.5630    -2.9220 c3         1 NS3      -0.110800
     18 C10         -3.7820    -4.5990    -0.8170 ca         1 NS3      -0.353500
     19 S2          -4.2450    -6.1740    -1.4530 sy         1 NS3       1.434200
     20 O3          -3.8280    -7.1340    -0.4930 o          1 NS3      -0.637300
     21 O4          -5.5910    -6.0500    -1.8930 o          1 NS3      -0.637300
     22 N3          -3.3330    -6.4430    -2.8090 n3         1 NS3      -0.821500
     23 C14         -1.9710    -6.9890    -2.7070 c3         1 NS3       0.235300
     24 C15         -1.8560    -8.1900    -3.6510 c3         1 NS3       0.152800
     25 N4          -2.2650    -7.7870    -5.0040 n3         1 NS3      -0.733600
     26 C18         -2.0050    -8.8590    -5.9740 c3         1 NS3       0.153100
     27 C16         -3.6750    -7.3780    -5.0350 c3         1 NS3       0.152800
     28 C17         -3.8670    -6.1490    -4.1480 c3         1 NS3       0.235300
     29 H2          -0.3820    -0.4110    -0.9260 hc         1 NS3       0.049200
     30 H2A         -0.3820     0.9990     0.1720 hc         1 NS3       0.049200
     31 H3           1.9260    -0.8920    -0.4850 hc         1 NS3       0.044950
     32 H3A          1.9260     0.8920    -0.4850 hc         1 NS3       0.044950
     33 H4           2.1150     1.0130     1.8290 hc         1 NS3       0.044950
     34 H4A          2.8040    -0.6170     1.6550 hc         1 NS3       0.044950
     35 H5           0.3340     0.1420     2.9510 hc         1 NS3       0.049200
     36 H5A          1.0240    -1.4890     2.7780 hc         1 NS3       0.049200
     37 H1          -0.2620    -1.9670     0.8960 hc         1 NS3       0.087700
     38 H6          -1.7950     0.4100     2.0530 h2         1 NS3       0.086700
     39 HN2         -3.5660    -0.3410     0.8820 hn         1 NS3       0.403800
     40 HN1         -2.2380    -1.1640     3.7780 hn         1 NS3       0.463800
     41 H9          -3.0100    -5.3940     1.0150 ha         1 NS3       0.166000
     42 H12         -3.8370    -1.3280    -1.6540 ha         1 NS3       0.149000
     43 H13         -5.2240    -2.6660    -3.1210 hc         1 NS3       0.070700
     44 H13A        -3.8800    -3.6740    -3.6760 hc         1 NS3       0.070700
     45 H13B        -5.3060    -4.4240    -2.9460 hc         1 NS3       0.070700
     46 H14         -1.7830    -7.3080    -1.6890 h1         1 NS3       0.061950
     47 H14A        -1.2540    -6.2300    -2.9950 h1         1 NS3       0.061950
     48 H15         -2.5010    -8.9860    -3.3020 h1         1 NS3       0.043950
     49 H15A        -0.8280    -8.5330    -3.6730 h1         1 NS3       0.043950
     50 H18         -0.9520    -9.1140    -5.9570 h1         1 NS3       0.034033
     51 H18A        -2.5920    -9.7320    -5.7130 h1         1 NS3       0.034033
     52 H18B        -2.2800    -8.5230    -6.9660 h1         1 NS3       0.034033
     53 H16         -3.9580    -7.1350    -6.0520 h1         1 NS3       0.043950
     54 H16A        -4.2930    -8.1880    -4.6660 h1         1 NS3       0.043950
     55 H17         -3.3330    -5.3080    -4.5740 h1         1 NS3       0.061950
     56 H17A        -4.9220    -5.9170    -4.0750 h1         1 NS3       0.061950
@<TRIPOS>BOND
     1     1     5 1
     2     1     2 1
     3     1    29 1
     4     1    30 1
     5     3     2 1
     6     2    31 1
     7     2    32 1
     8     3     4 1
     9     3    33 1
    10     3    34 1
    11     5     4 1
    12     4    35 1
    13     4    36 1
    14     6     5 1
    15     5    37 1
    16     7     6 1
    17     6     8 1
    18     6    38 1
    19    14     7 1
    20     7    39 1
    21     9     8 1
    22     8    40 1
    23    12     9 1
    24    10     9 2
    25     9    11 2
    26    13    12 ar
    27    12    14 ar
    28    18    13 ar
    29    13    41 1
    30    15    14 ar
    31    16    15 ar
    32    15    42 1
    33    17    16 1
    34    18    16 ar
    35    17    43 1
    36    17    44 1
    37    17    45 1
    38    19    18 1
    39    22    19 1
    40    21    19 2
    41    19    20 2
    42    28    22 1
    43    23    22 1
    44    24    23 1
    45    23    46 1
    46    23    47 1
    47    25    24 1
    48    24    48 1
    49    24    49 1
    50    26    25 1
    51    25    27 1
    52    26    50 1
    53    26    51 1
    54    26    52 1
    55    27    28 1
    56    27    53 1
    57    27    54 1
    58    28    55 1
    59    28    56 1
@<TRIPOS>SUBSTRUCTURE
     1 NS3         1 TEMP              0 ****  ****    0 ROOT
