@<TRIPOS>MOLECULE
NS4
   39    40     1     0     0
SMALL
bcc


@<TRIPOS>ATOM
      1 C1           0.0000     0.0000     0.0000 ca         1 NS4       0.087600
      2 N1          -0.7020     0.0050    -1.2100 nu         1 NS4      -0.396500
      3 O1          -2.4850     0.7140    -2.7080 o          1 NS4      -0.579300
      4 S1          -2.1210     0.8480    -1.3410 s6         1 NS4       0.954900
      5 C2           1.3930     0.0000     0.0000 ca         1 NS4       0.100100
      6 N2           2.1280     0.0020     3.6790 no         1 NS4       1.049200
      7 O2          -2.9410     0.3180    -0.3090 o          1 NS4      -0.579300
      8 C3           2.0830     0.0000     1.2000 ca         1 NS4      -0.112000
      9 O3           3.3470     0.0020     3.6800 o          1 NS4      -0.453000
     10 C4           1.3890     0.0010     2.3970 ca         1 NS4      -0.436200
     11 O4           1.5190     0.0020     4.7330 o          1 NS4      -0.453000
     12 C5           0.0060     0.0000     2.3990 ca         1 NS4      -0.017000
     13 O5           2.0740    -0.0020    -1.1780 os         1 NS4      -0.299900
     14 C6          -0.6890     0.0000     1.2040 ca         1 NS4      -0.171000
     15 C7          -1.6630     2.5650    -0.9710 c3         1 NS4       0.013700
     16 C8           3.4980    -0.0950    -1.1030 c3         1 NS4       0.161100
     17 C9           4.1020     1.3100    -1.0630 c3         1 NS4      -0.041900
     18 C10          5.6260     1.2090    -0.9830 c3         1 NS4      -0.018400
     19 C11          6.1530     0.4630    -2.2100 c3         1 NS4      -0.028400
     20 C12          5.5490    -0.9430    -2.2500 c3         1 NS4      -0.018400
     21 C13          4.0250    -0.8410    -2.3310 c3         1 NS4      -0.041900
     22 HN1         -0.3680    -0.5340    -1.9840 hn         1 NS4       0.362800
     23 H3           3.1660    -0.0000     1.2030 ha         1 NS4       0.156000
     24 H5          -0.5330     0.0010     3.3380 ha         1 NS4       0.136000
     25 H6          -1.7730    -0.0000     1.2070 ha         1 NS4       0.185000
     26 H7          -2.3050     3.2370    -1.5280 h1         1 NS4       0.068033
     27 H7A         -1.7810     2.7490     0.0900 h1         1 NS4       0.068033
     28 H7B         -0.6310     2.7320    -1.2550 h1         1 NS4       0.068033
     29 H8           3.7830    -0.6340    -0.2070 h1         1 NS4       0.031700
     30 H9           3.7300     1.8370    -0.1930 hc         1 NS4       0.024200
     31 H9A          3.8240     1.8470    -1.9620 hc         1 NS4       0.024200
     32 H10          5.9040     0.6680    -0.0860 hc         1 NS4       0.018450
     33 H10A         6.0520     2.2050    -0.9570 hc         1 NS4       0.018450
     34 H11          5.8710     1.0010    -3.1070 hc         1 NS4       0.017200
     35 H11A         7.2320     0.3900    -2.1510 hc         1 NS4       0.017200
     36 H12          5.9210    -1.4690    -3.1210 hc         1 NS4       0.018450
     37 H12A         5.8280    -1.4800    -1.3520 hc         1 NS4       0.018450
     38 H13          3.7480    -0.3010    -3.2270 hc         1 NS4       0.024200
     39 H13A         3.6000    -1.8370    -2.3570 hc         1 NS4       0.024200
@<TRIPOS>BOND
     1     1     2 1   
     2     1     5 ar  
     3     1    14 ar  
     4     2     4 1   
     5     2    22 1   
     6     3     4 2   
     7     4     7 2   
     8     4    15 1   
     9     5     8 ar  
    10     5    13 1   
    11     6     9 1   
    12     6    10 1   
    13     6    11 1   
    14     8    10 ar  
    15     8    23 1   
    16    10    12 ar  
    17    12    14 ar  
    18    12    24 1   
    19    13    16 1   
    20    14    25 1   
    21    15    26 1   
    22    15    27 1   
    23    15    28 1   
    24    16    17 1   
    25    16    21 1   
    26    16    29 1   
    27    17    18 1   
    28    17    30 1   
    29    17    31 1   
    30    18    19 1   
    31    18    32 1   
    32    18    33 1   
    33    19    20 1   
    34    19    34 1   
    35    19    35 1   
    36    20    21 1   
    37    20    36 1   
    38    20    37 1   
    39    21    38 1   
    40    21    39 1   
@<TRIPOS>SUBSTRUCTURE
     1 NS4         1 TEMP              0 ****  ****    0 ROOT
