@<TRIPOS>MOLECULE
molecule
  100    99     1     0     0
SMALL
bcc


@<TRIPOS>ATOM
      1 C1           0.0000     0.0000     0.0000 c3         1 NS5      -0.077700
      2 CM1          1.5300     0.0000     0.0000 c3         1 NS5      -0.087600
      3 CM2         -0.5100     0.0000     1.4420 c3         1 NS5      -0.087600
      4 C2          -0.5100     1.2490    -0.7210 c3         1 NS5      -0.077400
      5 C3          -0.1050     1.1890    -2.1950 c3         1 NS5      -0.077400
      6 C4          -0.6150     2.4380    -2.9160 c3         1 NS5      -0.040200
      7 C5          -0.2160     2.3790    -4.3690 c2         1 NS5      -0.124400
      8 C6           1.1450     2.8630    -4.7960 c3         1 NS5      -0.052900
      9 C7          -1.0530     1.9050    -5.2580 c2         1 NS5      -0.185200
     10 C8          -0.6110     1.7290    -6.6890 c3         1 NS5      -0.045200
     11 C9          -0.7150     0.2530    -7.0760 c3         1 NS5      -0.038200
     12 C10         -0.2740     0.0780    -8.5070 c2         1 NS5      -0.100400
     13 C11         -1.2550     0.2930    -9.6300 c3         1 NS5      -0.057900
     14 C12          0.9880    -0.2700    -8.7790 ce         1 NS5      -0.161000
     15 C13          1.4030    -0.4360   -10.1240 ce         1 NS5      -0.111000
     16 C14          2.6850    -0.7880   -10.4000 cf         1 NS5      -0.142000
     17 C15          3.0980    -0.9530   -11.7350 cf         1 NS5      -0.107200
     18 C16          2.1160    -0.7370   -12.8580 c3         1 NS5      -0.051900
     19 C17          4.3860    -1.3070   -12.0130 ce         1 NS5      -0.133000
     20 C18          4.7960    -1.4710   -13.3440 ce         1 NS5      -0.263000
     21 C19          6.0960    -1.8280   -13.6230 cf         1 NS5      -0.241000
     22 C20          7.0070    -2.0280   -12.5800 cf         1 NS5      -0.150000
     23 C21          8.3080    -2.3860   -12.8600 ce         1 NS5      -0.279200
     24 C22          8.7490    -2.5620   -14.2900 c3         1 NS5      -0.055900
     25 C23          9.2190    -2.5860   -11.8150 ce         1 NS5      -0.010000
     26 C24         10.5190    -2.9440   -12.0960 cf         1 NS5      -0.201000
     27 C25         11.4310    -3.1440   -11.0500 cf         1 NS5      -0.397000
     28 C26         12.7200    -3.4980   -11.3280 ce         1 NS5      -0.052200
     29 C27         13.1610    -3.6750   -12.7590 c3         1 NS5      -0.108900
     30 C28         13.6350    -3.7000   -10.2800 ce         1 NS5      -0.035000
     31 C29         14.9180    -4.0520   -10.5570 cf         1 NS5      -0.187000
     32 C30         15.8410    -4.2550    -9.5010 cf         1 NS5      -0.469000
     33 C31         17.1020    -4.6020    -9.7730 c2         1 NS5       0.002600
     34 C32         17.5440    -4.7780   -11.2020 c3         1 NS5      -0.119900
     35 C33         18.0840    -4.8180    -8.6490 c3         1 NS5      -0.066200
     36 C34         18.1360    -6.3050    -8.2960 c3         1 NS5      -0.090200
     37 C35         19.1170    -6.5210    -7.1730 c2         1 NS5      -0.520200
     38 C36         18.7180    -7.0650    -6.0490 c2         1 NS5       0.033600
     39 CM3         17.2550    -7.3520    -5.8300 c3         1 NS5      -0.093900
     40 CM4         19.7230    -7.4040    -4.9790 c3         1 NS5      -0.093900
     41 H1          -0.3610    -0.8840    -0.5110 hc         1 NS5       0.048700
     42 HM11         1.8910    -0.6180     0.8130 hc         1 NS5       0.033533
     43 HM12         1.8910     1.0130     0.1280 hc         1 NS5       0.033533
     44 HM13         1.8910    -0.3960    -0.9420 hc         1 NS5       0.033533
     45 HM21        -0.1190     0.8660     1.9630 hc         1 NS5       0.033533
     46 HM22        -0.1790    -0.9020     1.9420 hc         1 NS5       0.033533
     47 HM23        -1.5930     0.0370     1.4420 hc         1 NS5       0.033533
     48 H21         -1.5890     1.2950    -0.6450 hc         1 NS5       0.041700
     49 H22         -0.0780     2.1310    -0.2640 hc         1 NS5       0.041700
     50 H31          0.9750     1.1430    -2.2720 hc         1 NS5       0.044700
     51 H32         -0.5370     0.3060    -2.6520 hc         1 NS5       0.044700
     52 H41         -1.6950     2.4830    -2.8400 hc         1 NS5       0.046200
     53 H42         -0.1840     3.3210    -2.4590 hc         1 NS5       0.046200
     54 H61          1.6290     3.3610    -3.9640 hc         1 NS5       0.041367
     55 H62          1.0390     3.5580    -5.6200 hc         1 NS5       0.041367
     56 H63          1.7470     2.0190    -5.1110 hc         1 NS5       0.041367
     57 H7          -2.0310     1.5570    -4.9490 ha         1 NS5       0.125000
     58 H81         -1.2470     2.3190    -7.3390 hc         1 NS5       0.051700
     59 H82          0.4160     2.0580    -6.7930 hc         1 NS5       0.051700
     60 H91         -0.0790    -0.3360    -6.4270 hc         1 NS5       0.050700
     61 H92         -1.7420    -0.0760    -6.9720 hc         1 NS5       0.050700
     62 H111        -1.3270    -0.6100   -10.2250 hc         1 NS5       0.044700
     63 H112        -0.9150     1.1100   -10.2550 hc         1 NS5       0.044700
     64 H113        -2.2280     0.5330    -9.2190 hc         1 NS5       0.044700
     65 H12          1.6930    -0.4260    -7.9720 ha         1 NS5       0.130000
     66 H13          0.6970    -0.2820   -10.9320 ha         1 NS5       0.134000
     67 H14          3.3910    -0.9430    -9.5930 ha         1 NS5       0.128000
     68 H161         2.6190    -0.8730   -13.8080 hc         1 NS5       0.051033
     69 H162         1.3060    -1.4520   -12.7730 hc         1 NS5       0.051033
     70 H163         1.7180     0.2690   -12.8020 hc         1 NS5       0.051033
     71 H17          5.0910    -1.4620   -11.2050 ha         1 NS5       0.168000
     72 H18          4.5600    -2.2870   -12.6720 ha         1 NS5       0.216000
     73 H19          6.1360    -2.7200   -13.0090 ha         1 NS5       0.279000
     74 H20          6.9670    -1.1370   -13.1940 ha         1 NS5       0.333000
     75 H221         9.5300    -1.8470   -14.5180 hc         1 NS5       0.050033
     76 H222         7.9060    -2.3980   -14.9510 hc         1 NS5       0.050033
     77 H223         9.1270    -3.5670   -14.4300 hc         1 NS5       0.050033
     78 H23          8.9020    -2.4600   -10.7870 ha         1 NS5       0.159000
     79 H24         10.8360    -3.0700   -13.1240 ha         1 NS5       0.103000
     80 H25         11.3900    -2.2520   -11.6640 ha         1 NS5       0.315000
     81 H271        12.7150    -2.9010   -13.3720 hc         1 NS5       0.044367
     82 H272        14.2410    -3.6020   -12.8150 hc         1 NS5       0.044367
     83 H273        12.8460    -4.6470   -13.1170 hc         1 NS5       0.044367
     84 H28         13.3170    -3.5740    -9.2520 ha         1 NS5       0.172000
     85 H29         15.2360    -4.1780   -11.5850 ha         1 NS5       0.099000
     86 H30         15.3490    -5.0530   -10.0450 ha         1 NS5       0.325000
     87 H321        16.9880    -5.5910   -11.6540 hc         1 NS5       0.049367
     88 H322        17.3570    -3.8640   -11.7530 hc         1 NS5       0.049367
     89 H323        18.6020    -5.0050   -11.2280 hc         1 NS5       0.049367
     90 H331        17.7690    -4.2510    -7.7810 hc         1 NS5       0.070700
     91 H332        19.0680    -4.4860    -8.9590 hc         1 NS5       0.070700
     92 H341        17.1530    -6.6370    -7.9850 hc         1 NS5       0.058200
     93 H342        18.4500    -6.8720    -9.1640 hc         1 NS5       0.058200
     94 H351        18.4660    -5.6560    -7.2020 ha         1 NS5       0.340000
     95 HM31        16.6950    -6.4260    -5.8730 hc         1 NS5       0.052033
     96 HM32        16.9000    -8.0260    -6.6010 hc         1 NS5       0.052033
     97 HM33        17.1190    -7.8110    -4.8580 hc         1 NS5       0.052033
     98 HM41        20.6750    -6.9470    -5.2190 hc         1 NS5       0.052033
     99 HM42        19.8420    -8.4800    -4.9240 hc         1 NS5       0.052033
    100 HM43        19.3730    -7.0310    -4.0240 hc         1 NS5       0.052033
@<TRIPOS>BOND
     1     1     2 1
     2     1     3 1
     3     1     4 1
     4     1    41 1
     5     2    42 1
     6     2    43 1
     7     2    44 1
     8     3    45 1
     9     3    46 1
    10     3    47 1
    11     4     5 1
    12     4    48 1
    13     4    49 1
    14     5     6 1
    15     5    50 1
    16     5    51 1
    17     6     7 1
    18     6    52 1
    19     6    53 1
    20     7     8 1
    21     7     9 2
    22     8    54 1
    23     8    55 1
    24     8    56 1
    25     9    10 1
    26     9    57 1
    27    10    11 1
    28    10    58 1
    29    10    59 1
    30    11    12 1
    31    11    60 1
    32    11    61 1
    33    12    13 1
    34    12    14 2
    35    13    62 1
    36    13    63 1
    37    13    64 1
    38    14    15 1
    39    14    65 1
    40    15    16 2
    41    15    66 1
    42    16    17 1
    43    16    67 1
    44    17    18 1
    45    17    19 2
    46    18    68 1
    47    18    69 1
    48    18    70 1
    49    19    20 1
    50    19    71 1
    51    20    21 2
    52    20    72 1
    53    21    22 1
    54    21    73 1
    55    22    23 2
    56    22    74 1
    57    23    24 1
    58    23    25 1
    59    24    75 1
    60    24    76 1
    61    24    77 1
    62    25    26 2
    63    25    78 1
    64    26    27 1
    65    26    79 1
    66    27    28 2
    67    27    80 1
    68    28    29 1
    69    28    30 1
    70    29    81 1
    71    29    82 1
    72    29    83 1
    73    30    31 2
    74    30    84 1
    75    31    32 1
    76    31    85 1
    77    32    33 2
    78    32    86 1
    79    33    34 1
    80    33    35 1
    81    34    87 1
    82    34    88 1
    83    34    89 1
    84    35    36 1
    85    35    90 1
    86    35    91 1
    87    36    37 1
    88    36    92 1
    89    36    93 1
    90    37    38 2
    91    37    94 1
    92    38    39 1
    93    38    40 1
    94    39    95 1
    95    39    96 1
    96    39    97 1
    97    40    98 1
    98    40    99 1
    99    40   100 1
@<TRIPOS>SUBSTRUCTURE
     1 NS5         1 TEMP              0 ****  ****    0 ROOT
