@<TRIPOS>MOLECULE
NS5
  100    99     1     0     0
SMALL
bcc


@<TRIPOS>ATOM
      1 C1          0.6830    0.5830    0.7500 c3        1 NS5     -0.067700
      2 CM1         1.4580    1.8200    1.1520 c3        1 NS5     -0.089600
      3 CM2         0.0290   -0.0410    1.9660 c3        1 NS5     -0.089600
      4 C2         -0.3680    0.9030   -0.3030 c3        1 NS5     -0.076400
      5 C3          0.2390    1.1310   -1.6710 c3        1 NS5     -0.076400
      6 C4         -0.8390    1.4070   -2.7030 c3        1 NS5     -0.041200
      7 C5         -0.2580    1.6960   -4.0450 c2        1 NS5     -0.120400
      8 C6          0.4900    2.9690   -4.1820 c3        1 NS5     -0.058900
      9 C7         -0.4150    0.8460   -5.0730 c2        1 NS5     -0.177200
     10 C8          0.1290    1.0970   -6.4280 c3        1 NS5     -0.043200
     11 C9         -0.0400   -0.1060   -7.3390 c3        1 NS5     -0.043200
     12 C10         0.4670    0.1710   -8.7140 c2        1 NS5     -0.098400
     13 C11        -0.3620    1.0750   -9.5470 c3        1 NS5     -0.063900
     14 C12         1.6090   -0.3930   -9.1550 ce        1 NS5     -0.148000
     15 C13         2.1650   -0.1920  -10.4730 ce        1 NS5     -0.123000
     16 C14         3.3140   -0.7690  -10.8700 cf        1 NS5     -0.129000
     17 C15         3.9210   -0.5970  -12.1810 cf        1 NS5     -0.067200
     18 C16         3.1430    0.1550  -13.1950 c3        1 NS5     -0.062900
     19 C17         5.1460   -1.1260  -12.4140 ce        1 NS5     -0.131000
     20 C18         5.8940   -1.0060  -13.6400 ce        1 NS5     -0.124000
     21 C19         6.9220   -1.7940  -14.0110 cf        1 NS5     -0.122000
     22 C20         7.4300   -2.9210  -13.2690 cf        1 NS5     -0.139000
     23 C21         8.5020   -3.6570  -13.6390 ce        1 NS5     -0.066200
     24 C22         9.2680   -3.3900  -14.8820 c3        1 NS5     -0.062900
     25 C23         8.9150   -4.7900  -12.8200 ce        1 NS5     -0.127000
     26 C24        10.1570   -5.0700  -12.3950 cf        1 NS5     -0.120000
     27 C25        11.3300   -4.2630  -12.6370 cf        1 NS5     -0.142000
     28 C26        12.5880   -4.6280  -12.3080 ce        1 NS5     -0.066200
     29 C27        12.9050   -5.9400  -11.6910 c3        1 NS5     -0.062900
     30 C28        13.6990   -3.7310  -12.6030 ce        1 NS5     -0.130000
     31 C29        14.6910   -3.3730  -11.7720 cf        1 NS5     -0.118000
     32 C30        14.8230   -3.7830  -10.3930 cf        1 NS5     -0.150000
     33 C31        15.9040   -3.5370   -9.6260 c2        1 NS5     -0.098400
     34 C32        17.1020   -2.8200  -10.1240 c3        1 NS5     -0.063900
     35 C33        15.9410   -3.9700   -8.2000 c3        1 NS5     -0.044200
     36 C34        16.8570   -5.1650   -8.0010 c3        1 NS5     -0.042200
     37 C35        16.9290   -5.5770   -6.5800 c2        1 NS5     -0.179200
     38 C36        17.5630   -6.6850   -6.1640 c2        1 NS5     -0.122400
     39 CM3        18.2460   -7.6050   -7.1050 c3        1 NS5     -0.058400
     40 CM4        17.6180   -7.0630   -4.7310 c3        1 NS5     -0.058400
     41 H1          1.4070   -0.1650    0.3150 hc        1 NS5      0.046700
     42 HM11        2.2290    1.5600    1.9180 hc        1 NS5      0.033033
     43 HM12        1.9750    2.2640    0.2680 hc        1 NS5      0.033033
     44 HM13        0.7740    2.5880    1.5860 hc        1 NS5      0.033033
     45 HM21        0.7950   -0.2660    2.7460 hc        1 NS5      0.033033
     46 HM22       -0.4860   -0.9920    1.6890 hc        1 NS5      0.033033
     47 HM23       -0.7270    0.6550    2.4040 hc        1 NS5      0.033033
     48 H21        -1.0980    0.0520   -0.3640 hc        1 NS5      0.039200
     49 H22        -0.9450    1.8120    0.0110 hc        1 NS5      0.039200
     50 H31         0.9510    1.9970   -1.6350 hc        1 NS5      0.043200
     51 H32         0.8290    0.2280   -1.9780 hc        1 NS5      0.043200
     52 H41        -1.4530    2.2890   -2.3740 hc        1 NS5      0.044200
     53 H42        -1.5310    0.5250   -2.7590 hc        1 NS5      0.044200
     54 H61         0.1500    3.5270   -5.0910 hc        1 NS5      0.041367
     55 H62         1.5850    2.7610   -4.2950 hc        1 NS5      0.041367
     56 H63         0.3470    3.6240   -3.2890 hc        1 NS5      0.041367
     57 H7         -0.9740   -0.0950   -4.9420 ha        1 NS5      0.122000
     58 H81         1.2200    1.3620   -6.3560 hc        1 NS5      0.051200
     59 H82        -0.3910    1.9860   -6.8810 hc        1 NS5      0.051200
     60 H91        -1.1280   -0.3800   -7.3990 hc        1 NS5      0.048200
     61 H92         0.4990   -0.9840   -6.8920 hc        1 NS5      0.048200
     62 H111       -0.7240    0.5400  -10.4600 hc        1 NS5      0.044033
     63 H112        0.2360    1.9620   -9.8780 hc        1 NS5      0.044033
     64 H113       -1.2520    1.4460   -8.9830 hc        1 NS5      0.044033
     65 H12         2.1810   -1.0610   -8.4860 ha        1 NS5      0.123000
     66 H13         1.5970    0.4700  -11.1510 ha        1 NS5      0.125000
     67 H14         3.8690   -1.4220  -10.1720 ha        1 NS5      0.122000
     68 H161        2.1020   -0.2490  -13.2580 hc        1 NS5      0.044367
     69 H162        3.0840    1.2350  -12.9070 hc        1 NS5      0.044367
     70 H163        3.5980    0.0860  -14.2120 hc        1 NS5      0.044367
     71 H17         5.6420   -1.6920  -11.6030 ha        1 NS5      0.125000
     72 H18         5.6000   -0.1810  -14.3130 ha        1 NS5      0.123000
     73 H19         7.4320   -1.5790  -14.9680 ha        1 NS5      0.121000
     74 H20         6.8940   -3.1840  -12.3400 ha        1 NS5      0.126000
     75 H221        9.7270   -2.3710  -14.8490 hc        1 NS5      0.046033
     76 H222        8.5900   -3.4390  -15.7720 hc        1 NS5      0.046033
     77 H223       10.0840   -4.1410  -15.0230 hc        1 NS5      0.046033
     78 H23         8.0860   -5.4630  -12.5290 ha        1 NS5      0.126000
     79 H24        10.3170   -5.9810  -11.7890 ha        1 NS5      0.122000
     80 H25        11.1530   -3.2790  -13.1070 ha        1 NS5      0.131000
     81 H271       14.0080   -6.0720  -11.5660 hc        1 NS5      0.046033
     82 H272       12.5220   -6.7730  -12.3330 hc        1 NS5      0.046033
     83 H273       12.4240   -6.0260  -10.6840 hc        1 NS5      0.046033
     84 H28        13.6830   -3.3120  -13.6270 ha        1 NS5      0.124000
     85 H29        15.4760   -2.6900  -12.1470 ha        1 NS5      0.121000
     86 H30        13.9580   -4.3200   -9.9640 ha        1 NS5      0.130000
     87 H321       16.8430   -1.7600  -10.3750 hc        1 NS5      0.044033
     88 H322       17.9160   -2.8080   -9.3570 hc        1 NS5      0.044033
     89 H323       17.5000   -3.3090  -11.0490 hc        1 NS5      0.044033
     90 H331       14.9090   -4.2340   -7.8440 hc        1 NS5      0.048700
     91 H332       16.3010   -3.1140   -7.5670 hc        1 NS5      0.048700
     92 H341       16.4930   -6.0250   -8.6270 hc        1 NS5      0.050200
     93 H342       17.8900   -4.9120   -8.3690 hc        1 NS5      0.050200
     94 H351       16.4270   -4.9150   -5.8560 ha        1 NS5      0.122000
     95 HM31       18.9460   -7.0380   -7.7690 hc        1 NS5      0.040700
     96 HM32       17.4940   -8.1170   -7.7570 hc        1 NS5      0.040700
     97 HM33       18.8290   -8.3860   -6.5590 hc        1 NS5      0.040700
     98 HM41       17.1790   -8.0820   -4.5870 hc        1 NS5      0.040700
     99 HM42       17.0540   -6.3420   -4.0910 hc        1 NS5      0.040700
    100 HM43       18.6810   -7.0890   -4.3820 hc        1 NS5      0.040700
@<TRIPOS>BOND
     1    1    2 1   
     2    1    3 1   
     3    1    4 1   
     4    1   41 1   
     5    2   42 1   
     6    2   43 1   
     7    2   44 1   
     8    3   45 1   
     9    3   46 1   
    10    3   47 1   
    11    4    5 1   
    12    4   48 1   
    13    4   49 1   
    14    5    6 1   
    15    5   50 1   
    16    5   51 1   
    17    6    7 1   
    18    6   52 1   
    19    6   53 1   
    20    7    8 1   
    21    7    9 2   
    22    8   54 1   
    23    8   55 1   
    24    8   56 1   
    25    9   10 1   
    26    9   57 1   
    27   10   11 1   
    28   10   58 1   
    29   10   59 1   
    30   11   12 1   
    31   11   60 1   
    32   11   61 1   
    33   12   13 1   
    34   12   14 2   
    35   13   62 1   
    36   13   63 1   
    37   13   64 1   
    38   14   15 1   
    39   14   65 1   
    40   15   16 2   
    41   15   66 1   
    42   16   17 1   
    43   16   67 1   
    44   17   18 1   
    45   17   19 2   
    46   18   68 1   
    47   18   69 1   
    48   18   70 1   
    49   19   20 1   
    50   19   71 1   
    51   20   21 2   
    52   20   72 1   
    53   21   22 1   
    54   21   73 1   
    55   22   23 2   
    56   22   74 1   
    57   23   24 1   
    58   23   25 1   
    59   24   75 1   
    60   24   76 1   
    61   24   77 1   
    62   25   26 2   
    63   25   78 1   
    64   26   27 1   
    65   26   79 1   
    66   27   28 2   
    67   27   80 1   
    68   28   29 1   
    69   28   30 1   
    70   29   81 1   
    71   29   82 1   
    72   29   83 1   
    73   30   31 2   
    74   30   84 1   
    75   31   32 1   
    76   31   85 1   
    77   32   33 2   
    78   32   86 1   
    79   33   34 1   
    80   33   35 1   
    81   34   87 1   
    82   34   88 1   
    83   34   89 1   
    84   35   36 1   
    85   35   90 1   
    86   35   91 1   
    87   36   37 1   
    88   36   92 1   
    89   36   93 1   
    90   37   38 2   
    91   37   94 1   
    92   38   39 1   
    93   38   40 1   
    94   39   95 1   
    95   39   96 1   
    96   39   97 1   
    97   40   98 1   
    98   40   99 1   
    99   40  100 1   
@<TRIPOS>SUBSTRUCTURE
     1 NS5         1 TEMP              0 ****  ****    0 ROOT
