@<TRIPOS>MOLECULE
NS6
   54    57     1     0     0
SMALL
bcc


@<TRIPOS>ATOM
      1 C2           0.0000     0.0000     0.0000 c3         1 NS6      -0.030400
      2 C3           1.5480     0.0000     0.0000 c3         1 NS6      -0.023400
      3 C4           1.9270     0.0000     1.4950 c3         1 NS6      -0.023400
      4 C5           0.7240    -0.5900     2.2530 c3         1 NS6      -0.030400
      5 C1          -0.3420    -0.9280     1.1910 c3         1 NS6      -0.059700
      6 C6          -1.7440    -0.6220     1.7230 c3         1 NS6       0.209500
      7 C9          -2.0570    -1.5440     2.8900 c3         1 NS6      -0.024100
      8 N1          -1.8010     0.7790     2.1840 n7         1 NS6      -0.590100
      9 S1          -3.3080     1.3140     2.6590 sy         1 NS6       1.041200
     10 O2          -3.0950     2.3340     3.6250 o          1 NS6      -0.577800
     11 O1          -4.0700     1.5000     1.4750 o          1 NS6      -0.577800
     12 C7          -4.0220    -0.0580     3.5160 ca         1 NS6      -0.161500
     13 C10         -5.2350     0.1160     4.1590 ca         1 NS6       0.125000
     14 C8          -3.3830    -1.2790     3.5400 ca         1 NS6       0.057700
     15 C13         -3.9910    -2.3390     4.2070 ca         1 NS6      -0.164000
     16 C12         -5.2010    -2.1700     4.8430 ca         1 NS6       0.054000
     17 C11         -5.8280    -0.9380     4.8250 ca         1 NS6      -0.191500
     18 S2          -7.3710    -0.7140     5.6480 sy         1 NS6       1.060200
     19 O3          -7.4420    -1.7200     6.6480 o          1 NS6      -0.586800
     20 O4          -7.4760     0.6740     5.9330 o          1 NS6      -0.586800
     21 N2          -8.5640    -1.0580     4.5530 n3         1 NS6      -0.536500
     22 C14         -9.0920    -2.4240     4.4160 c3         1 NS6       0.234300
     23 C15        -10.6200    -2.3670     4.5050 c3         1 NS6       0.140800
     24 N3         -11.1300    -1.4040     3.5200 n3         1 NS6      -0.546600
     25 C18        -12.5960    -1.4440     3.4530 c3         1 NS6       0.190100
     26 C16        -10.6530    -0.0440     3.8100 c3         1 NS6       0.140800
     27 C17         -9.1300    -0.0040     3.6970 c3         1 NS6       0.234300
     28 H2          -0.3820     0.9990     0.1720 hc         1 NS6       0.022450
     29 H2A         -0.3820    -0.4110    -0.9270 hc         1 NS6       0.022450
     30 H3           1.9260     0.8920    -0.4850 hc         1 NS6       0.015450
     31 H3A          1.9260    -0.8920    -0.4850 hc         1 NS6       0.015450
     32 H4           2.1130     1.0130     1.8290 hc         1 NS6       0.015450
     33 H4A          2.8030    -0.6170     1.6550 hc         1 NS6       0.015450
     34 H5           0.3330     0.1410     2.9510 hc         1 NS6       0.022450
     35 H5A          1.0230    -1.4900     2.7770 hc         1 NS6       0.022450
     36 H1          -0.2620    -1.9670     0.8950 hc         1 NS6       0.037700
     37 H6          -2.4750    -0.7730     0.9390 h1         1 NS6       0.041700
     38 H9          -2.0490    -2.5660     2.5300 hc         1 NS6       0.041700
     39 H9A         -1.2800    -1.4290     3.6360 hc         1 NS6       0.041700
     40 HN1         -0.9920     1.3680     2.2080 hn         1 NS6       0.370800
     41 H10         -5.7210     1.0840     4.1410 ha         1 NS6       0.129000
     42 H13         -3.5070    -3.3080     4.2250 ha         1 NS6       0.115000
     43 H12         -5.6590    -3.0030     5.3640 ha         1 NS6       0.121000
     44 H14         -8.7990    -2.8320     3.4560 h1         1 NS6       0.027450
     45 H14A        -8.7050    -3.0450     5.2150 h1         1 NS6       0.027450
     46 H15        -10.9110    -2.0540     5.5000 h1         1 NS6       0.015450
     47 H15A       -11.0290    -3.3480     4.2940 h1         1 NS6       0.015450
     48 H18        -12.9420    -0.7520     2.6950 h1         1 NS6       0.000033
     49 H18A       -12.9190    -2.4470     3.2020 h1         1 NS6       0.000033
     50 H18B       -13.0090    -1.1620     4.4140 h1         1 NS6       0.000033
     51 H16        -10.9470     0.2340     4.8150 h1         1 NS6       0.015450
     52 H16A       -11.0850     0.6480     3.0980 h1         1 NS6       0.015450
     53 H17         -8.7670     0.9630     4.0250 h1         1 NS6       0.027450
     54 H17A        -8.8380    -0.1780     2.6680 h1         1 NS6       0.027450
@<TRIPOS>BOND
     1     1     2 1   
     2     1     5 1   
     3     1    28 1   
     4     1    29 1   
     5     2     3 1   
     6     2    30 1   
     7     2    31 1   
     8     3     4 1   
     9     3    32 1   
    10     3    33 1   
    11     4     5 1   
    12     4    34 1   
    13     4    35 1   
    14     5     6 1   
    15     5    36 1   
    16     6     7 1   
    17     6     8 1   
    18     6    37 1   
    19     7    14 1   
    20     7    38 1   
    21     7    39 1   
    22     8     9 1   
    23     8    40 1   
    24     9    10 2   
    25     9    11 2   
    26     9    12 1   
    27    12    13 ar  
    28    12    14 ar  
    29    13    17 ar  
    30    13    41 1   
    31    14    15 ar  
    32    15    16 ar  
    33    15    42 1   
    34    16    17 ar  
    35    16    43 1   
    36    17    18 1   
    37    18    19 2   
    38    18    20 2   
    39    18    21 1   
    40    21    22 1   
    41    21    27 1   
    42    22    23 1   
    43    22    44 1   
    44    22    45 1   
    45    23    24 1   
    46    23    46 1   
    47    23    47 1   
    48    24    25 1   
    49    24    26 1   
    50    25    48 1   
    51    25    49 1   
    52    25    50 1   
    53    26    27 1   
    54    26    51 1   
    55    26    52 1   
    56    27    53 1   
    57    27    54 1   
@<TRIPOS>SUBSTRUCTURE
     1 NS6         1 TEMP              0 ****  ****    0 ROOT
