@<TRIPOS>MOLECULE
molecule
   57    60     1     0     0
SMALL
bcc


@<TRIPOS>ATOM
      1 C2           0.0000     0.0000     0.0000 c3         1 NS7      -0.079900
      2 C3           1.5390     0.0000     0.0000 c3         1 NS7      -0.082900
      3 C4           1.9800     0.0000     1.4780 c3         1 NS7      -0.082900
      4 C5           0.7710    -0.6030     2.2360 c3         1 NS7      -0.079900
      5 C1          -0.4400    -0.0010     1.4790 c3         1 NS7      -0.078700
      6 C6          -1.6790    -0.8780     1.6680 c3         1 NS7       0.247500
      7 C9          -2.0950    -0.8610     3.1290 c3         1 NS7      -0.082100
      8 N1          -2.7850    -0.3540     0.8420 n7         1 NS7      -0.912100
      9 S1          -4.1670    -1.2870     0.8250 sy         1 NS7       1.417200
     10 O1          -3.8850    -2.4230     0.0200 o          1 NS7      -0.626800
     11 O2          -5.2540    -0.4040     0.5830 o          1 NS7      -0.626800
     12 C7          -4.3390    -1.8680     2.4860 ca         1 NS7      -0.313500
     13 C10         -5.4840    -2.5640     2.8340 ca         1 NS7       0.080000
     14 C8          -3.3490    -1.6330     3.4170 ca         1 NS7       0.060700
     15 C13         -3.5150    -2.1250     4.7090 ca         1 NS7      -0.175000
     16 C12         -4.6530    -2.8230     5.0570 ca         1 NS7       0.069700
     17 C14         -4.8130    -3.3460     6.4600 c3         1 NS7      -0.123800
     18 C11         -5.6440    -3.0420     4.1200 ca         1 NS7      -0.334500
     19 S2          -7.1050    -3.9240     4.5630 sy         1 NS7       1.430200
     20 O3          -7.9070    -3.9860     3.3920 o          1 NS7      -0.632800
     21 O4          -6.6760    -5.0780     5.2730 o          1 NS7      -0.632800
     22 N2          -7.9320    -2.9880     5.6490 n3         1 NS7      -0.819500
     23 C15         -7.7560    -3.1780     7.0970 c3         1 NS7       0.236800
     24 C16         -7.4480    -1.8170     7.7320 c3         1 NS7       0.143300
     25 N3          -8.4920    -0.8560     7.3540 n3         1 NS7      -0.726600
     26 C19         -8.3290     0.4110     8.0780 c3         1 NS7       0.152100
     27 C17         -8.5110    -0.6330     5.9010 c3         1 NS7       0.143300
     28 C18         -8.8590    -1.9410     5.1920 c3         1 NS7       0.236800
     29 H2          -0.3700    -0.8890    -0.4970 hc         1 NS7       0.048950
     30 H2A         -0.3700     0.8900    -0.4950 hc         1 NS7       0.048950
     31 H3           1.9090     0.8890    -0.4960 hc         1 NS7       0.046450
     32 H3A          1.9090    -0.8890    -0.4960 hc         1 NS7       0.046450
     33 H4           2.8570    -0.6220     1.6100 hc         1 NS7       0.046450
     34 H4A          2.1710     1.0120     1.8150 hc         1 NS7       0.046450
     35 H5           0.7720    -1.6830     2.1590 hc         1 NS7       0.048950
     36 H5A          0.7710    -0.2830     3.2710 hc         1 NS7       0.048950
     37 H1          -0.6290     1.0110     1.8160 hc         1 NS7       0.061700
     38 H6          -1.4580    -1.8960     1.3690 h1         1 NS7       0.072700
     39 H9          -1.2900    -1.2800     3.7210 hc         1 NS7       0.073700
     40 H9A         -2.2500     0.1690     3.4290 hc         1 NS7       0.073700
     41 HN1         -2.7100     0.5010     0.3280 hn         1 NS7       0.464800
     42 H10         -6.2580    -2.7330     2.0950 ha         1 NS7       0.166000
     43 H13         -2.7410    -1.9600     5.4490 ha         1 NS7       0.138000
     44 H14         -5.4070    -2.6490     7.0400 hc         1 NS7       0.074367
     45 H14A        -5.3100    -4.3080     6.4320 hc         1 NS7       0.074367
     46 H14B        -3.8380    -3.4570     6.9180 hc         1 NS7       0.074367
     47 H15         -6.9310    -3.8570     7.2770 h1         1 NS7       0.067450
     48 H15A        -8.6670    -3.5800     7.5250 h1         1 NS7       0.067450
     49 H16         -7.4260    -1.9190     8.8100 h1         1 NS7       0.041200
     50 H16A        -6.4880    -1.4630     7.3770 h1         1 NS7       0.041200
     51 H19         -9.1300     1.0880     7.8050 h1         1 NS7       0.034033
     52 H19A        -8.3620     0.2250     9.1440 h1         1 NS7       0.034033
     53 H19B        -7.3760     0.8560     7.8180 h1         1 NS7       0.034033
     54 H17         -7.5350    -0.2950     5.5760 h1         1 NS7       0.041200
     55 H17A        -9.2570     0.1150     5.6620 h1         1 NS7       0.041200
     56 H18         -9.8750    -2.2260     5.4350 h1         1 NS7       0.067450
     57 H18A        -8.7580    -1.8100     4.1210 h1         1 NS7       0.067450
@<TRIPOS>BOND
     1     1     2 1
     2     1     5 1
     3     1    29 1
     4     1    30 1
     5     2     3 1
     6     2    31 1
     7     2    32 1
     8     3     4 1
     9     3    33 1
    10     3    34 1
    11     5     4 1
    12     4    35 1
    13     4    36 1
    14     6     5 1
    15     5    37 1
    16     8     6 1
    17     7     6 1
    18     6    38 1
    19    14     7 1
    20     7    39 1
    21     7    40 1
    22     9     8 1
    23     8    41 1
    24    11     9 2
    25    12     9 1
    26     9    10 2
    27    13    12 ar
    28    12    14 ar
    29    18    13 ar
    30    13    42 1
    31    15    14 ar
    32    16    15 ar
    33    15    43 1
    34    18    16 ar
    35    17    16 1
    36    17    44 1
    37    17    45 1
    38    17    46 1
    39    19    18 1
    40    21    19 2
    41    20    19 2
    42    19    22 1
    43    23    22 1
    44    22    28 1
    45    23    24 1
    46    23    47 1
    47    23    48 1
    48    24    25 1
    49    24    49 1
    50    24    50 1
    51    26    25 1
    52    25    27 1
    53    26    51 1
    54    26    52 1
    55    26    53 1
    56    28    27 1
    57    27    54 1
    58    27    55 1
    59    28    56 1
    60    28    57 1
@<TRIPOS>SUBSTRUCTURE
     1 NS7         1 TEMP              0 ****  ****    0 ROOT
