@<TRIPOS>MOLECULE
molecule
   18    18     1     0     0
SMALL
bcc


@<TRIPOS>ATOM
      1 OAA          0.0000     0.0000     0.0000 o          1 NS8      -0.210000
      2 NAK          1.2180     0.0000     0.0000 no         1 NS8       0.267100
      3 OAB          1.8270     0.0000     1.0550 o          1 NS8      -0.210000
      4 CAD          1.9580    -0.0050    -1.2820 c2         1 NS8      -0.233100
      5 CAC          1.2950    -0.0110    -2.4300 ce         1 NS8      -0.006200
      6 CAJ          2.0340    -0.0170    -3.7100 ca         1 NS8      -0.094800
      7 CAH          1.3390    -0.0230    -4.9200 ca         1 NS8      -0.096500
      8 CAF          2.0350    -0.0270    -6.1120 ca         1 NS8      -0.129000
      9 CAE          3.4190    -0.0260    -6.1080 ca         1 NS8      -0.103000
     10 CAG          4.1130    -0.0210    -4.9120 ca         1 NS8      -0.129000
     11 CAI          3.4300    -0.0100    -3.7140 ca         1 NS8      -0.096500
     12 H1           3.0420    -0.0040    -1.2820 h4         1 NS8       0.186000
     13 H2           0.2110    -0.0130    -2.4290 ha         1 NS8       0.167000
     14 H3           0.2560    -0.0240    -4.9240 ha         1 NS8       0.137500
     15 H4           1.4970    -0.0320    -7.0520 ha         1 NS8       0.139000
     16 H5           3.9600    -0.0320    -7.0460 ha         1 NS8       0.137000
     17 H6           5.1960    -0.0170    -4.9160 ha         1 NS8       0.139000
     18 H7           3.9750    -0.0060    -2.7780 ha         1 NS8       0.137500
@<TRIPOS>BOND
     1    11    10 ar
     2    11     6 ar
     3     1     2 1
     4    10     9 ar
     5     5     6 1
     6     5     4 2
     7     6     7 ar
     8     2     4 1
     9     2     3 1
    10     9     8 ar
    11     7     8 ar
    12     4    12 1
    13     5    13 1
    14     7    14 1
    15     8    15 1
    16     9    16 1
    17    10    17 1
    18    11    18 1
@<TRIPOS>SUBSTRUCTURE
     1 NS8         1 TEMP              0 ****  ****    0 ROOT
