@<TRIPOS>MOLECULE
NS8
   18    19     1     0     0
SMALL
bcc


@<TRIPOS>ATOM
      1 OAA          0.0000     0.0000     0.0000 o          1 NS8      -0.756200
      2 NAK          1.2180     0.0000     0.0000 no         1 NS8       1.650400
      3 OAB          1.8270     0.0000     1.0550 o          1 NS8      -0.756200
      4 CAD          1.9580    -0.0050    -1.2820 c2         1 NS8      -0.232000
      5 CAC          1.2950    -0.0110    -2.4300 c2         1 NS8      -0.006000
      6 CAJ          2.0340    -0.0170    -3.7100 c3         1 NS8      -0.042000
      7 CAH          1.3390    -0.0230    -4.9200 c2         1 NS8      -0.122500
      8 CAF          2.0350    -0.0270    -6.1120 c2         1 NS8      -0.074000
      9 CAE          3.4190    -0.0260    -6.1080 c2         1 NS8      -0.104000
     10 CAG          4.1130    -0.0210    -4.9120 c2         1 NS8      -0.074000
     11 CAI          3.4300    -0.0100    -3.7140 c2         1 NS8      -0.122500
     12 H1           1.4930     0.8720    -0.8480 h4         1 NS8      -0.079000
     13 H2           1.7570     0.8620    -2.8730 DU         1 NS8       0.140000
     14 H3           0.2560    -0.0240    -4.9240 ha         1 NS8       0.124000
     15 H4           1.4970    -0.0320    -7.0520 ha         1 NS8       0.110000
     16 H5           3.9600    -0.0320    -7.0460 ha         1 NS8       0.109000
     17 H6           5.1960    -0.0170    -4.9160 ha         1 NS8       0.110000
     18 H7           3.9750    -0.0060    -2.7780 ha         1 NS8       0.124000
@<TRIPOS>BOND
     1     1     2 2   
     2     2     3 2   
     3     2     4 1   
     4     4     5 1   
     5     4    12 1   
     6     5     6 1   
     7     5    13 1   
     8     6     7 1   
     9     6    11 1   
    10     6    13 1   
    11     7     8 1   
    12     7    14 1   
    13     8     9 1   
    14     8    15 1   
    15     9    10 1   
    16     9    16 1   
    17    10    11 1   
    18    10    17 1   
    19    11    18 1   
@<TRIPOS>SUBSTRUCTURE
     1 NS8         1 TEMP              0 ****  ****    0 ROOT
