@<TRIPOS>MOLECULE
molecule
   55    57     1     0     0
SMALL
bcc


@<TRIPOS>ATOM
      1 N1           0.0000     0.0000     0.0000 nc         1 NS9      -0.606100
      2 N2           1.4000     0.0000     0.0000 na         1 NS9      -0.019800
      3 C3           2.3250     0.0000     1.0130 cc         1 NS9       0.355300
      4 C4           3.6530     0.0000     0.6980 cd         1 NS9      -0.471300
      5 C5           4.0390     0.0010    -0.6520 cd         1 NS9       0.768200
      6 N6           3.1230     0.0020    -1.6050 nc         1 NS9      -0.818000
      7 C7           1.8160     0.0010    -1.3050 cc         1 NS9       0.486500
      8 C8           0.6740     0.0020    -2.0930 cd         1 NS9      -0.355800
      9 C9          -0.4240     0.0010    -1.2420 cd         1 NS9       0.437500
     10 N10          1.9190     0.0000     2.3310 nu         1 NS9      -0.796600
     11 C11          2.9160    -0.0000     3.4040 c3         1 NS9       0.288100
     12 C12          2.2170    -0.0010     4.7390 ca         1 NS9      -0.124300
     13 C13          1.8910     1.1970     5.3490 ca         1 NS9      -0.106500
     14 C14          1.2510     1.1960     6.5740 ca         1 NS9      -0.129500
     15 C15          0.9350    -0.0010     7.1890 ca         1 NS9      -0.114000
     16 C16          1.2600    -1.1980     6.5780 ca         1 NS9      -0.129500
     17 C17          1.8960    -1.1980     5.3510 ca         1 NS9      -0.106500
     18 N18          5.3840     0.0010    -0.9860 nu         1 NS9      -0.900900
     19 C19          5.7880     0.0010    -2.3940 c3         1 NS9       0.253500
     20 C20          7.1860    -0.6080    -2.5220 c3         1 NS9       0.142100
     21 C21          7.1540    -2.0610    -2.0450 c3         1 NS9       0.109400
     22 O22          8.4800    -2.5940    -2.0560 oh         1 NS9      -0.617800
     23 C23          5.8090     1.4390    -2.9180 c3         1 NS9       0.123400
     24 O24          6.8100     2.1860    -2.2230 oh         1 NS9      -0.625800
     25 O25          7.6020    -0.5630    -3.8890 oh         1 NS9      -0.599800
     26 C26          0.6320     0.0030    -3.6000 c3         1 NS9       0.017500
     27 C27         -0.1040    -1.2460    -4.0900 c3         1 NS9      -0.085100
     28 C28         -0.1030     1.2530    -4.0880 c3         1 NS9      -0.085100
     29 H4           4.4010    -0.0000     1.4810 ha         1 NS9       0.152000
     30 H9          -1.4620     0.0010    -1.5530 h4         1 NS9       0.058800
     31 HN10         0.9440     0.0290     2.5540 hn         1 NS9       0.469800
     32 H11          3.5360     0.8840     3.3210 h1         1 NS9       0.051700
     33 H11A         3.5360    -0.8850     3.3210 h1         1 NS9       0.051700
     34 H13          2.1390     2.1350     4.8680 ha         1 NS9       0.136000
     35 H14          0.9960     2.1340     7.0520 ha         1 NS9       0.135000
     36 H15          0.4340    -0.0020     8.1490 ha         1 NS9       0.134000
     37 H16          1.0100    -2.1360     7.0590 ha         1 NS9       0.135000
     38 H17          2.1510    -2.1370     4.8740 ha         1 NS9       0.136000
     39 HN18         6.0780     0.0390    -0.2660 hn         1 NS9       0.451800
     40 H19          5.0840    -0.5840    -2.9720 h1         1 NS9       0.102700
     41 H20          7.8830    -0.0440    -1.9140 h1         1 NS9       0.059700
     42 H21          6.5250    -2.6450    -2.7070 h1         1 NS9       0.033200
     43 H21A         6.7560    -2.1030    -1.0390 h1         1 NS9       0.033200
     44 HO22         8.4650    -3.4820    -1.7390 ho         1 NS9       0.406000
     45 H23          6.0330     1.4340    -3.9780 h1         1 NS9       0.044200
     46 H23A         4.8410     1.8970    -2.7560 h1         1 NS9       0.044200
     47 HO24         6.7660     3.0910    -2.4840 ho         1 NS9       0.405000
     48 HO25         8.5410    -0.4910    -3.9290 ho         1 NS9       0.418000
     49 H26          1.6420     0.0030    -3.9890 hc         1 NS9       0.064700
     50 H27         -1.1560    -1.1640    -3.8480 hc         1 NS9       0.031200
     51 H27A         0.0140    -1.3370    -5.1630 hc         1 NS9       0.031200
     52 H27B         0.3110    -2.1230    -3.6060 hc         1 NS9       0.031200
     53 H28          0.0710     1.3820    -5.1490 hc         1 NS9       0.031200
     54 H28A        -1.1650     1.1410    -3.9070 hc         1 NS9       0.031200
     55 H28B         0.2650     2.1200    -3.5530 hc         1 NS9       0.031200
@<TRIPOS>BOND
     1     1     9 2
     2     1     2 1
     3     2     3 1
     4     2     7 1
     5    10     3 1
     6     3     4 2
     7     4     5 1
     8     4    29 1
     9     6     5 2
    10     5    18 1
    11     7     6 1
    12     8     7 2
    13     9     8 1
    14     8    26 1
    15     9    30 1
    16    10    11 1
    17    10    31 1
    18    12    11 1
    19    11    32 1
    20    11    33 1
    21    13    12 ar
    22    12    17 ar
    23    14    13 ar
    24    13    34 1
    25    14    15 ar
    26    14    35 1
    27    15    16 ar
    28    15    36 1
    29    16    17 ar
    30    16    37 1
    31    17    38 1
    32    18    19 1
    33    18    39 1
    34    23    19 1
    35    19    20 1
    36    19    40 1
    37    20    25 1
    38    20    21 1
    39    20    41 1
    40    22    21 1
    41    21    42 1
    42    21    43 1
    43    22    44 1
    44    23    24 1
    45    23    45 1
    46    23    46 1
    47    24    47 1
    48    25    48 1
    49    28    26 1
    50    26    27 1
    51    26    49 1
    52    27    50 1
    53    27    51 1
    54    27    52 1
    55    28    53 1
    56    28    54 1
    57    28    55 1
@<TRIPOS>SUBSTRUCTURE
     1 NS9         1 TEMP              0 ****  ****    0 ROOT
