@<TRIPOS>MOLECULE
molecule
   19    19     1     0     0
SMALL
bcc


@<TRIPOS>ATOM
      1 Cl1          0.0000     0.0000     0.0000 cl         1 NSA      -0.123900
      2 Cl2          2.4020     1.4710    -0.8510 cl         1 NSA      -0.123900
      3 C1           1.8020     0.0000     0.0000 c3         1 NSA       0.079100
      4 C2           2.3070     0.0000     1.4200 c          1 NSA       0.646100
      5 O1           1.5190     0.0010     2.3420 o          1 NSA      -0.548100
      6 C5           5.7260    -0.4140     4.6570 ca         1 NSA      -0.111000
      7 C6           5.0260     0.3460     5.5740 ca         1 NSA      -0.139000
      8 C7           3.8630     0.9920     5.1970 ca         1 NSA      -0.111000
      9 C8           3.3980     0.8790     3.9020 ca         1 NSA      -0.140000
     10 N1           3.6310    -0.0000     1.6650 ns         1 NSA      -0.466100
     11 C4           5.2630    -0.5360     3.3620 ca         1 NSA      -0.140000
     12 C3           4.0990     0.1170     2.9780 ca         1 NSA       0.051600
     13 H1           2.1620    -0.8850    -0.5110 h2         1 NSA       0.107700
     14 H5           6.6350    -0.9210     4.9560 ha         1 NSA       0.134500
     15 H6           5.3910     0.4380     6.5900 ha         1 NSA       0.132000
     16 H7           3.3160     1.5870     5.9180 ha         1 NSA       0.134500
     17 H8           2.4880     1.3850     3.6070 ha         1 NSA       0.144500
     18 HN1          4.2800    -0.0610     0.9050 hn         1 NSA       0.329500
     19 H4           5.8130    -1.1320     2.6440 ha         1 NSA       0.144500
@<TRIPOS>BOND
     1     1     3 1
     2     2     3 1
     3     3     4 1
     4     3    13 1
     5     4     5 2
     6     4    10 1
     7     6     7 ar
     8     6    11 ar
     9     6    14 1
    10     7     8 ar
    11     7    15 1
    12     8     9 ar
    13     8    16 1
    14     9    12 ar
    15     9    17 1
    16    10    12 1
    17    10    18 1
    18    11    12 ar
    19    11    19 1
@<TRIPOS>SUBSTRUCTURE
     1 NSA         1 TEMP              0 ****  ****    0 ROOT
