@<TRIPOS>MOLECULE
molecule
   26    25     1     0     0
SMALL
bcc


@<TRIPOS>ATOM
      1 O50          0.0000     0.0000     0.0000 o          1 NSB      -0.674867
      2 S8           1.5210     0.0000     0.0000 s6         1 NSB       1.214800
      3 O46          1.8360     0.0000     1.3860 o          1 NSB      -0.674867
      4 O48          1.8370    -1.0980    -0.8460 o          1 NSB      -0.674867
      5 C6           1.9350     1.5840    -0.7800 c3         1 NSB      -0.249600
      6 C4           3.4550     1.7350    -0.8540 c3         1 NSB      -0.079400
      7 C2           3.8050     3.0720    -1.5110 c3         1 NSB       0.100800
      8 N1           5.2650     3.2160    -1.5830 n4         1 NSB      -0.578800
      9 C20          5.8280     2.1170    -2.3800 c3         1 NSB       0.096100
     10 C18          5.8280     3.1760    -0.2270 c3         1 NSB       0.096100
     11 C16          5.6000     4.5000    -2.2150 c3         1 NSB       0.096100
     12 H61          1.5210     1.6130    -1.7800 h1         1 NSB       0.085700
     13 H62          1.5200     2.3950    -0.1930 h1         1 NSB       0.085700
     14 H41          3.8700     1.7050     0.1460 hc         1 NSB       0.058700
     15 H42          3.8700     0.9240    -1.4410 hc         1 NSB       0.058700
     16 H21          3.3900     3.1020    -2.5110 hx         1 NSB       0.096200
     17 H22          3.3910     3.8820    -0.9240 hx         1 NSB       0.096200
     18 H201         5.9250     1.2340    -1.7590 hx         1 NSB       0.094144
     19 H202         6.8030     2.4050    -2.7540 hx         1 NSB       0.094144
     20 H203         5.1700     1.9010    -3.2130 hx         1 NSB       0.094144
     21 H181         5.1710     3.7060     0.4520 hx         1 NSB       0.094144
     22 H182         6.8030     3.6480    -0.2270 hx         1 NSB       0.094144
     23 H183         5.9250     2.1460     0.0940 hx         1 NSB       0.094144
     24 H161         5.1840     4.5290    -3.2150 hx         1 NSB       0.094144
     25 H162         5.1850     5.3100    -1.6270 hx         1 NSB       0.094144
     26 H163         6.6760     4.6060    -2.2670 hx         1 NSB       0.094144
@<TRIPOS>BOND
     1     1     2 1
     2     2     3 1
     3     2     4 1
     4     2     5 1
     5     5     6 1
     6     5    12 1
     7     5    13 1
     8     6     7 1
     9     6    14 1
    10     6    15 1
    11     7     8 1
    12     7    16 1
    13     7    17 1
    14     8     9 1
    15     8    10 1
    16     8    11 1
    17     9    18 1
    18     9    19 1
    19     9    20 1
    20    10    21 1
    21    10    22 1
    22    10    23 1
    23    11    24 1
    24    11    25 1
    25    11    26 1
@<TRIPOS>SUBSTRUCTURE
     1 NSB         1 TEMP              0 ****  ****    0 ROOT
