@<TRIPOS>MOLECULE
NSC
   48    51     1     0     0
SMALL
bcc


@<TRIPOS>ATOM
      1 C12          0.0000     0.0000     0.0000 ca         1 NSC      -0.132000
      2 C3           1.4010     0.0000     0.0000 ca         1 NSC      -0.162300
      3 C2           2.1370     0.0000     1.2090 ca         1 NSC       0.076600
      4 N1           1.4930     0.0010     2.4380 nv         1 NSC      -0.486200
      5 C7           3.5200    -0.0010     1.1270 ca         1 NSC      -0.284300
      6 C6           4.1350    -0.0020    -0.1190 ca         1 NSC       0.408100
      7 C8           5.6400    -0.0030    -0.1920 c3         1 NSC      -0.043400
      8 N5           3.4420    -0.0030    -1.2330 nb         1 NSC      -0.595000
      9 C4           2.1030    -0.0020    -1.2290 ca         1 NSC       0.391600
     10 C9           1.3790    -0.0030    -2.4340 ca         1 NSC      -0.129300
     11 C10          0.0200    -0.0020    -2.4100 ca         1 NSC      -0.091000
     12 C11         -0.6790    -0.0020    -1.1990 ca         1 NSC      -0.071400
     13 N13         -2.0790    -0.0010    -1.2050 ns         1 NSC      -0.051600
     14 C14         -2.7490    -0.6470    -2.1790 c          1 NSC       0.553100
     15 O28         -2.1420    -1.3070    -3.0000 o          1 NSC      -0.675100
     16 N15         -4.0930    -0.5610    -2.2440 ns         1 NSC      -0.051600
     17 C16         -4.7970    -1.3090    -3.1950 ca         1 NSC      -0.071400
     18 C17         -6.0320    -1.8320    -2.8760 ca         1 NSC      -0.132000
     19 C18         -6.7310    -2.5790    -3.8330 ca         1 NSC      -0.162300
     20 C24         -8.0030    -3.1340    -3.5460 ca         1 NSC       0.076600
     21 N25         -8.5980    -2.9560    -2.3060 nv         1 NSC      -0.486200
     22 C23         -8.6330    -3.8600    -4.5430 ca         1 NSC      -0.284300
     23 C21         -8.0110    -4.0210    -5.7750 ca         1 NSC       0.408100
     24 C20         -8.7100    -4.8130    -6.8500 c3         1 NSC      -0.043400
     25 N22         -6.8330    -3.5010    -6.0290 nb         1 NSC      -0.595000
     26 C19         -6.1660    -2.7890    -5.1130 ca         1 NSC       0.391600
     27 C26         -4.9050    -2.2410    -5.4050 ca         1 NSC      -0.129300
     28 C27         -4.2450    -1.5140    -4.4630 ca         1 NSC      -0.091000
     29 H12         -0.5460     0.0000     0.9360 ha         1 NSC       0.107000
     30 HN11         1.2790     0.8680     2.8890 hn         1 NSC       0.272300
     31 HN12         1.2810    -0.8650     2.8920 hn         1 NSC       0.272300
     32 H7           4.1160    -0.1070     2.0250 ha         1 NSC       0.119000
     33 H81          6.0460     0.4250     0.7160 hc         1 NSC       0.012867
     34 H82          5.9600     0.5840    -1.0440 hc         1 NSC       0.012867
     35 H83          5.9950    -1.0210    -0.3010 hc         1 NSC       0.012867
     36 H9           1.9040    -0.0030    -3.3810 ha         1 NSC       0.119500
     37 H10         -0.5300    -0.0030    -3.3440 ha         1 NSC       0.143000
     38 H13         -2.5800     0.3820    -0.4270 hn         1 NSC       0.160000
     39 H15         -4.5900    -0.0000    -1.5810 hn         1 NSC       0.160000
     40 H17         -6.3920    -1.7860    -1.8550 ha         1 NSC       0.107000
     41 H251        -9.4940    -3.3600    -2.1180 hn         1 NSC       0.272300
     42 H252        -8.1330    -2.4190    -1.6010 hn         1 NSC       0.272300
     43 H23         -9.6450    -4.2180    -4.3960 ha         1 NSC       0.119000
     44 H201        -8.8100    -5.8440    -6.5310 hc         1 NSC       0.012867
     45 H202        -8.1300    -4.7720    -7.7630 hc         1 NSC       0.012867
     46 H203        -9.6930    -4.3930    -7.0270 hc         1 NSC       0.012867
     47 H26         -4.4630    -2.3900    -6.3830 ha         1 NSC       0.119500
     48 H27         -3.2800    -1.0830    -4.7010 ha         1 NSC       0.143000
@<TRIPOS>BOND
     1     1     2 ar  
     2     1    12 ar  
     3     1    29 1   
     4     2     3 ar  
     5     2     9 ar  
     6     3     4 1   
     7     3     5 ar  
     8     4    30 1   
     9     4    31 1   
    10     5     6 ar  
    11     5    32 1   
    12     6     7 1   
    13     6     8 ar  
    14     7    33 1   
    15     7    34 1   
    16     7    35 1   
    17     8     9 ar  
    18     9    10 ar  
    19    10    11 ar  
    20    10    36 1   
    21    11    12 ar  
    22    11    37 1   
    23    12    13 1   
    24    13    14 1   
    25    13    38 1   
    26    14    15 2   
    27    14    16 1   
    28    16    17 1   
    29    16    39 1   
    30    17    18 ar  
    31    17    28 ar  
    32    18    19 ar  
    33    18    40 1   
    34    19    20 ar  
    35    19    26 ar  
    36    20    21 1   
    37    20    22 ar  
    38    21    41 1   
    39    21    42 1   
    40    22    23 ar  
    41    22    43 1   
    42    23    24 1   
    43    23    25 ar  
    44    24    44 1   
    45    24    45 1   
    46    24    46 1   
    47    25    26 ar  
    48    26    27 ar  
    49    27    28 ar  
    50    27    47 1   
    51    28    48 1   
@<TRIPOS>SUBSTRUCTURE
     1 NSC         1 TEMP              0 ****  ****    0 ROOT
