@<TRIPOS>MOLECULE
molecule
   28    27     1     0     0
SMALL
bcc


@<TRIPOS>ATOM
      1 C1           0.0000     0.0000     0.0000 c3         1 NSD       0.094800
      2 N1           1.4690     0.0000     0.0000 nz         1 NSD      -0.808600
      3 C2          -0.5110     0.0000     1.4420 c3         1 NSD      -0.115400
      4 N2          -2.5310     0.0010     2.8270 n7         1 NSD      -0.812200
      5 C3          -2.0410    -0.0000     1.4410 c3         1 NSD       0.168800
      6 N3          -6.4540    -0.0000     5.7580 nz         1 NSD      -0.808600
      7 C4          -4.0000    -0.0000     2.8650 c3         1 NSD       0.168800
      8 C5          -4.4710    -0.0000     4.3210 c3         1 NSD      -0.115400
      9 C6          -6.0000    -0.0000     4.3610 c3         1 NSD       0.094800
     10 H1          -0.3610    -0.8840    -0.5110 hx         1 NSD       0.116200
     11 H1A         -0.3610     0.8840    -0.5110 hx         1 NSD       0.116200
     12 HN1          1.8020    -0.0470    -0.9420 hn         1 NSD       0.463300
     13 HN1A         1.8020    -0.7930     0.5120 hn         1 NSD       0.463300
     14 H2          -0.1500    -0.8840     1.9530 hc         1 NSD       0.076200
     15 H2A         -0.1500     0.8850     1.9530 hc         1 NSD       0.076200
     16 H7          -2.1850     0.8100     3.3020 hn         1 NSD       0.365800
     17 H3          -2.4020     0.8840     0.9300 h1         1 NSD       0.054700
     18 H3A         -2.4010    -0.8850     0.9310 h1         1 NSD       0.054700
     19 HN3         -7.4530    -0.0470     5.7850 hn         1 NSD       0.463300
     20 HN3A        -6.1470     0.8390     6.2090 hn         1 NSD       0.463300
     21 H5          -4.0960     0.8840     4.8220 hc         1 NSD       0.076200
     22 H5A         -4.0960    -0.8850     4.8220 hc         1 NSD       0.076200
     23 H6          -6.3750    -0.8850     3.8600 hx         1 NSD       0.116200
     24 H6A         -6.3750     0.8840     3.8600 hx         1 NSD       0.116200
     25 H4          -4.3750     0.8840     2.3640 h1         1 NSD       0.054700
     26 H17         -4.3740    -0.8850     2.3650 h1         1 NSD       0.054700
     27 H13          1.8020     0.8220     0.4630 hn         1 NSD       0.463300
     28 H33         -6.0630    -0.7880     6.2360 hn         1 NSD       0.463300
@<TRIPOS>BOND
     1     1     2 1
     2     3     1 1
     3     4     5 1
     4     5     3 1
     5     7     4 1
     6     8     7 1
     7     9     6 1
     8     9     8 1
     9     1    10 1
    10     1    11 1
    11     2    12 1
    12     2    13 1
    13     3    14 1
    14     3    15 1
    15     4    16 1
    16     5    17 1
    17     5    18 1
    18     6    19 1
    19     6    20 1
    20     8    21 1
    21     8    22 1
    22     9    23 1
    23     9    24 1
    24     7    25 1
    25     7    26 1
    26    27     2 1
    27    28     6 1
@<TRIPOS>SUBSTRUCTURE
     1 NSD         1 TEMP              0 ****  ****    0 ROOT
