@<TRIPOS>MOLECULE
NSD
   28    27     1     0     0
SMALL
bcc


@<TRIPOS>ATOM
      1 C1           0.0000     0.0000     0.0000 c3         1 NSD      -0.048200
      2 N1           1.4690     0.0000     0.0000 nz         1 NSD       0.090900
      3 C2          -0.5110     0.0000     1.4420 c3         1 NSD      -0.037900
      4 N2          -2.5310     0.0010     2.8270 n7         1 NSD      -0.573200
      5 C3          -2.0410    -0.0000     1.4410 c3         1 NSD       0.159800
      6 N3          -6.4540    -0.0000     5.7580 nz         1 NSD       0.090900
      7 C4          -4.0000    -0.0000     2.8650 c3         1 NSD       0.159800
      8 C5          -4.4710    -0.0000     4.3210 c3         1 NSD      -0.037900
      9 C6          -6.0000    -0.0000     4.3610 c3         1 NSD      -0.048200
     10 H1          -0.3610    -0.8840    -0.5110 hx         1 NSD       0.087700
     11 H1A         -0.3610     0.8840    -0.5110 hx         1 NSD       0.087700
     12 HN1          1.8020    -0.0470    -0.9420 hn         1 NSD       0.228133
     13 HN1A         1.8020    -0.7930     0.5120 hn         1 NSD       0.228133
     14 H2          -0.1500    -0.8840     1.9530 hc         1 NSD       0.041200
     15 H2A         -0.1500     0.8850     1.9530 hc         1 NSD       0.041200
     16 H7          -2.1850     0.8100     3.3020 hn         1 NSD       0.261800
     17 H3          -2.4020     0.8840     0.9300 h1         1 NSD       0.024700
     18 H3A         -2.4010    -0.8850     0.9310 h1         1 NSD       0.024700
     19 HN3         -7.4530    -0.0470     5.7850 hn         1 NSD       0.228133
     20 HN3A        -6.1470     0.8390     6.2090 hn         1 NSD       0.228133
     21 H5          -4.0960     0.8840     4.8220 hc         1 NSD       0.041200
     22 H5A         -4.0960    -0.8850     4.8220 hc         1 NSD       0.041200
     23 H6          -6.3750    -0.8850     3.8600 hx         1 NSD       0.087700
     24 H6A         -6.3750     0.8840     3.8600 hx         1 NSD       0.087700
     25 H4          -4.3750     0.8840     2.3640 h1         1 NSD       0.024700
     26 H17         -4.3740    -0.8850     2.3650 h1         1 NSD       0.024700
     27 H13          1.8020     0.8220     0.4630 hn         1 NSD       0.228133
     28 H33         -6.0630    -0.7880     6.2360 hn         1 NSD       0.228133
@<TRIPOS>BOND
     1     1     2 1   
     2     1     3 1   
     3     1    10 1   
     4     1    11 1   
     5     2    12 1   
     6     2    13 1   
     7     2    27 1   
     8     3     5 1   
     9     3    14 1   
    10     3    15 1   
    11     4     5 1   
    12     4     7 1   
    13     4    16 1   
    14     5    17 1   
    15     5    18 1   
    16     6     9 1   
    17     6    19 1   
    18     6    20 1   
    19     6    28 1   
    20     7     8 1   
    21     7    25 1   
    22     7    26 1   
    23     8     9 1   
    24     8    21 1   
    25     8    22 1   
    26     9    23 1   
    27     9    24 1   
@<TRIPOS>SUBSTRUCTURE
     1 NSD         1 TEMP              0 ****  ****    0 ROOT
