@<TRIPOS>MOLECULE
NSE
   27    29     1     0     0
SMALL
bcc


@<TRIPOS>ATOM
      1 C4          4.4310   -0.0920   10.2120 cg        1 NSE      0.227800
      2 C14         0.0550    0.0070   -0.0560 ca        1 NSE      0.412200
      3 C5          3.3030   -0.0690    8.0470 ca        1 NSE     -0.049000
      4 C6          0.8720   -0.0560    7.9450 ca        1 NSE     -0.058000
      5 C11         1.9700   -0.0290    3.6830 cc        1 NSE      0.599500
      6 C7          2.1770   -0.0460    5.8510 cd        1 NSE      0.565900
      7 C8          2.1180   -0.0570    7.2980 ca        1 NSE     -0.156500
      8 C9          1.3400   -0.0160    2.3710 ca        1 NSE     -0.253800
      9 C10        -0.0700   -0.0100    2.2450 ca        1 NSE      0.439200
     10 C12         2.1120   -0.0110    1.1980 ca        1 NSE     -0.057000
     11 C13         1.4610    0.0010   -0.0350 ca        1 NSE     -0.255300
     12 N1          5.4090   -0.1020   10.8410 n1        1 NSE     -0.345800
     13 N2          1.2350   -0.0350    4.9080 nc        1 NSE     -0.679000
     14 C3          3.2340   -0.0800    9.4450 ca        1 NSE     -0.022000
     15 N3          3.3100   -0.0360    3.9320 nd        1 NSE     -0.365300
     16 N4         -0.7030    0.0020    1.0590 nb        1 NSE     -0.670000
     17 O1          3.4690   -0.0460    5.2330 os        1 NSE     -0.136100
     18 C2          0.8170   -0.0660    9.3380 ca        1 NSE     -0.144000
     19 C1          1.9880   -0.0780   10.0920 ca        1 NSE     -0.064000
     20 H1         -0.4990    0.0160   -1.0120 h4        1 NSE      0.026100
     21 H2          4.2790   -0.0700    7.5350 ha        1 NSE      0.168000
     22 H3         -0.0590   -0.0460    7.3550 ha        1 NSE      0.163000
     23 H4         -0.7260   -0.0130    3.1350 h4        1 NSE      0.044100
     24 H5          3.2120   -0.0160    1.2430 ha        1 NSE      0.158000
     25 H6          2.0320    0.0060   -0.9730 ha        1 NSE      0.150000
     26 H7         -0.1600   -0.0650    9.8450 ha        1 NSE      0.150000
     27 H8          1.9400   -0.0860   11.1920 ha        1 NSE      0.152000
@<TRIPOS>BOND
     1    1   12 3
     2    1   14 1
     3    2   11 ar
     4    2   16 ar
     5    2   20 1
     6    3    7 ar
     7    3   14 ar
     8    3   21 1
     9    4    7 ar
    10    4   18 ar
    11    4   22 1
    12    5    8 1
    13    5   13 1
    14    5   15 2
    15    6    7 1
    16    6   13 2
    17    6   17 1
    18    8    9 ar
    19    8   10 ar
    20    9   16 ar
    21    9   23 1
    22   10   11 ar
    23   10   24 1
    24   11   25 1
    25   14   19 ar
    26   15   17 1
    27   18   19 ar
    28   18   26 1
    29   19   27 1
@<TRIPOS>SUBSTRUCTURE
     1 NSE         1 TEMP              0 ****  ****    0 ROOT
