@<TRIPOS>MOLECULE
NSG
   29    30     1     0     0
SMALL
bcc


@<TRIPOS>ATOM
      1 C1           0.0000     0.0000     0.0000 c3         1 NSG       0.302200
      2 S1           1.8330     0.0000     0.0000 ss         1 NSG      -0.484200
      3 C2          -0.3030    -0.5860     1.3980 c3         1 NSG       0.074500
      4 N2           0.6340     0.0750     2.3400 n7         1 NSG      -0.568200
      5 C3           0.0210    -2.0830     1.4230 c3         1 NSG       0.163100
      6 O3          -0.4410    -2.6460     2.6520 oh         1 NSG      -0.565800
      7 C4          -0.6580    -2.7940     0.2540 c3         1 NSG       0.135100
      8 O4          -2.0750    -2.6300     0.3480 oh         1 NSG      -0.562800
      9 C5          -0.1510    -2.1670    -1.0510 c3         1 NSG       0.143100
     10 O5          -0.5120    -0.7870    -1.0500 os         1 NSG      -0.332600
     11 C6          -0.7970    -2.8690    -2.2460 c3         1 NSG       0.228400
     12 O6          -0.2350    -2.3610    -3.4580 oh         1 NSG      -0.580800
     13 C7           2.0230     0.0000     1.8250 c3         1 NSG       0.238600
     14 C8           2.8280     1.2190     2.2780 c3         1 NSG       0.009900
     15 H1          -0.3750     1.0140    -0.0710 h2         1 NSG       0.071700
     16 H2          -1.3330    -0.4050     1.6820 h1         1 NSG       0.082700
     17 HN2          0.3720     1.0350     2.4540 hn         1 NSG       0.271800
     18 H3           1.0940    -2.2150     1.3450 h1         1 NSG       0.029700
     19 HO3          0.1830    -3.2820     2.9620 ho         1 NSG       0.386000
     20 H4          -0.4060    -3.8470     0.2730 h1         1 NSG       0.009700
     21 HO4         -2.4720    -3.4530     0.5810 ho         1 NSG       0.391000
     22 H5           0.9270    -2.2610    -1.1040 h1         1 NSG       0.052700
     23 H6          -1.8650    -2.6850    -2.2390 h1         1 NSG      -0.002800
     24 H6A         -0.6140    -3.9340    -2.1820 h1         1 NSG      -0.002800
     25 HO6         -0.5910    -2.8340    -4.1920 ho         1 NSG       0.389000
     26 H7           2.4970    -0.9170     2.1540 h2         1 NSG       0.064700
     27 H8           2.4130     2.1130     1.8290 hc         1 NSG       0.018367
     28 H8A          2.7820     1.3020     3.3570 hc         1 NSG       0.018367
     29 H8B          3.8600     1.1060     1.9690 hc         1 NSG       0.018367
@<TRIPOS>BOND
     1     1     2 1   
     2     1     3 1   
     3     1    10 1   
     4     1    15 1   
     5     2    13 1   
     6     3     4 1   
     7     3     5 1   
     8     3    16 1   
     9     4    13 1   
    10     4    17 1   
    11     5     6 1   
    12     5     7 1   
    13     5    18 1   
    14     6    19 1   
    15     7     8 1   
    16     7     9 1   
    17     7    20 1   
    18     8    21 1   
    19     9    10 1   
    20     9    11 1   
    21     9    22 1   
    22    11    12 1   
    23    11    23 1   
    24    11    24 1   
    25    12    25 1   
    26    13    14 1   
    27    13    26 1   
    28    14    27 1   
    29    14    28 1   
    30    14    29 1   
@<TRIPOS>SUBSTRUCTURE
     1 NSG         1 TEMP              0 ****  ****    0 ROOT
