@<TRIPOS>MOLECULE
molecule
   63    67     1     0     0
SMALL
bcc


@<TRIPOS>ATOM
      1 O52          0.0000     0.0000     0.0000 o          1 NSI      -0.620300
      2 S48          1.4210     0.0000     0.0000 sy         1 NSI       1.415900
      3 O50          2.2430     0.0000     1.1590 o          1 NSI      -0.620300
      4 C51          1.9000    -1.4200    -0.9270 ca         1 NSI      -0.315500
      5 C55          3.1510    -1.9760    -0.7410 ca         1 NSI      -0.015000
      6 C56          3.5280    -3.0900    -1.4680 ca         1 NSI      -0.154500
      7 C53          2.6520    -3.6470    -2.3810 ca         1 NSI      -0.070000
      8 C57          1.4000    -3.0910    -2.5670 ca         1 NSI      -0.154500
      9 C54          1.0230    -1.9800    -1.8360 ca         1 NSI      -0.015000
     10 N17          1.8700     1.3350    -0.8700 ns         1 NSI      -0.649300
     11 C15          1.2970     1.5860    -2.0630 c          1 NSI       0.726300
     12 O16          0.5080     0.7900    -2.5390 o          1 NSI      -0.553100
     13 C13          1.6220     2.8180    -2.7890 cc         1 NSI      -0.129300
     14 N10          1.0610     4.0580    -2.5560 na         1 NSI      -0.050400
     15 C12          0.0410     4.3400    -1.5430 c3         1 NSI       0.099600
     16 C34         -1.3290     4.1810    -2.1510 ca         1 NSI      -0.134300
     17 C37         -1.9920     2.9720    -2.0530 ca         1 NSI      -0.071000
     18 C38         -3.2490     2.8250    -2.6100 ca         1 NSI      -0.128000
     19 C36         -1.9240     5.2440    -2.8030 ca         1 NSI      -0.059000
     20 C39         -3.1780     5.0960    -3.3650 ca         1 NSI      -0.184300
     21 C43         -3.8250     6.2540    -4.0810 c3         1 NSI       0.674200
     22 F47         -5.0820     5.8650    -4.5570 f          1 NSI      -0.223633
     23 F46         -3.9730     7.3270    -3.1950 f          1 NSI      -0.223633
     24 F45         -3.0200     6.6450    -5.1570 f          1 NSI      -0.223633
     25 C35         -3.8410     3.8880    -3.2670 ca         1 NSI      -0.073000
     26 C6           1.5950     4.9870    -3.4170 ca         1 NSI      -0.020200
     27 C2           1.3710     6.3510    -3.5950 ca         1 NSI      -0.148000
     28 C5           2.0710     7.0390    -4.5620 ca         1 NSI      -0.095000
     29 C4           2.9990     6.3880    -5.3630 ca         1 NSI      -0.157000
     30 C1           3.2350     5.0520    -5.2060 ca         1 NSI      -0.068000
     31 C7           2.5470     2.9280    -3.8120 cd         1 NSI      -0.031400
     32 C3           2.5370     4.3340    -4.2320 ca         1 NSI      -0.099800
     33 C14          3.3770     1.8400    -4.3740 ca         1 NSI      -0.077800
     34 C20          4.7660     1.8790    -4.2390 ca         1 NSI      -0.074000
     35 C21          5.5370     0.8650    -4.7650 ca         1 NSI      -0.194000
     36 C19          2.7740     0.7730    -5.0410 ca         1 NSI      -0.074000
     37 C22          3.5520    -0.2360    -5.5680 ca         1 NSI      -0.194000
     38 C18          4.9320    -0.1960    -5.4270 ca         1 NSI       0.123100
     39 O27          5.6950    -1.1950    -5.9430 os         1 NSI      -0.297900
     40 C28          4.7990    -2.1250    -6.5540 c3         1 NSI       0.104700
     41 H55          3.8370    -1.5390    -0.0250 ha         1 NSI       0.157000
     42 H56          4.5090    -3.5260    -1.3230 ha         1 NSI       0.138000
     43 H53          2.9480    -4.5180    -2.9520 ha         1 NSI       0.132000
     44 H57          0.7130    -3.5300    -3.2810 ha         1 NSI       0.138000
     45 H54          0.0410    -1.5450    -1.9810 ha         1 NSI       0.157000
     46 HN17         2.5740     1.9510    -0.5130 hn         1 NSI       0.355500
     47 H121         0.1510     3.6490    -0.7170 h1         1 NSI       0.069200
     48 H122         0.1600     5.3550    -1.1840 h1         1 NSI       0.069200
     49 H37         -1.5280     2.1400    -1.5380 ha         1 NSI       0.157000
     50 H38         -3.7680     1.8780    -2.5330 ha         1 NSI       0.147000
     51 H36         -1.4310     6.2080    -2.8280 ha         1 NSI       0.142000
     52 H35         -4.8250     3.7720    -3.7050 ha         1 NSI       0.151000
     53 H2           0.6490     6.8680    -2.9750 ha         1 NSI       0.126000
     54 H5           1.8950     8.1000    -4.6980 ha         1 NSI       0.134000
     55 H4           3.5410     6.9440    -6.1180 ha         1 NSI       0.133000
     56 H1           3.9610     4.5510    -5.8350 ha         1 NSI       0.138000
     57 H20          5.2380     2.7070    -3.7230 ha         1 NSI       0.144000
     58 H21          6.6140     0.8930    -4.6590 ha         1 NSI       0.145000
     59 H19          1.6960     0.7410    -5.1510 ha         1 NSI       0.144000
     60 H22          3.0840    -1.0650    -6.0850 ha         1 NSI       0.145000
     61 H281         5.3640    -2.9490    -6.9730 h1         1 NSI       0.044367
     62 H282         4.2450    -1.6300    -7.3420 h1         1 NSI       0.044367
     63 H283         4.1080    -2.5030    -5.8100 h1         1 NSI       0.044367
@<TRIPOS>BOND
     1     1     2 2
     2     2     3 2
     3     2     4 1
     4     2    10 1
     5     4     5 ar
     6     4     9 ar
     7     5     6 ar
     8     5    41 1
     9     6     7 ar
    10     6    42 1
    11     7     8 ar
    12     7    43 1
    13     8     9 ar
    14     8    44 1
    15     9    45 1
    16    10    11 1
    17    10    46 1
    18    11    12 2
    19    11    13 1
    20    13    14 1
    21    13    31 2
    22    14    15 1
    23    14    26 1
    24    15    16 1
    25    15    47 1
    26    15    48 1
    27    16    17 ar
    28    16    19 ar
    29    17    18 ar
    30    17    49 1
    31    18    25 ar
    32    18    50 1
    33    19    20 ar
    34    19    51 1
    35    20    21 1
    36    20    25 ar
    37    21    22 1
    38    21    23 1
    39    21    24 1
    40    25    52 1
    41    26    27 ar
    42    26    32 ar
    43    27    28 ar
    44    27    53 1
    45    28    29 ar
    46    28    54 1
    47    29    30 ar
    48    29    55 1
    49    30    32 ar
    50    30    56 1
    51    31    32 1
    52    31    33 1
    53    33    34 ar
    54    33    36 ar
    55    34    35 ar
    56    34    57 1
    57    35    38 ar
    58    35    58 1
    59    36    37 ar
    60    36    59 1
    61    37    38 ar
    62    37    60 1
    63    38    39 1
    64    39    40 1
    65    40    61 1
    66    40    62 1
    67    40    63 1
@<TRIPOS>SUBSTRUCTURE
     1 NSI         1 TEMP              0 ****  ****    0 ROOT
