@<TRIPOS>MOLECULE
NSM
    6     5     1     0     0
SMALL
bcc


@<TRIPOS>ATOM
      1 O1           0.0000     0.0000     0.0000 o          1 NSM      -0.238700
      2 N            1.2460     0.0000     0.0000 n2         1 NSM       0.022200
      3 C1           1.8180     0.0000     1.3400 c3         1 NSM       0.123400
      4 H11          2.9000     0.0000     1.2710 h1         1 NSM       0.030700
      5 H12          1.4910     0.8850     1.8730 h1         1 NSM       0.030700
      6 H13          1.4910    -0.8850     1.8730 h1         1 NSM       0.030700
@<TRIPOS>BOND
     1     1     2 2   
     2     2     3 1   
     3     3     4 1   
     4     3     5 1   
     5     3     6 1   
@<TRIPOS>SUBSTRUCTURE
     1 NSM         1 TEMP              0 ****  ****    0 ROOT
