@<TRIPOS>MOLECULE
molecule
   27    26     1     0     0
SMALL
bcc


@<TRIPOS>ATOM
      1 C1           0.0000     0.0000     0.0000 c3         1 NSN      -0.161900
      2 C2           1.4970     0.0000     0.0000 c2         1 NSN       0.075800
      3 C3           2.2110     0.0000     1.3120 c2         1 NSN       0.518300
      4 O1           2.4900    -1.0680     1.8310 o          1 NSN      -0.304300
      5 N1           2.1010     0.0260    -1.1370 nu         1 NSN      -0.584000
      6 C4           1.5110     0.0290    -2.4870 c3         1 NSN       0.089500
      7 C5           2.4570     0.7850    -3.4160 c3         1 NSN      -0.195400
      8 C6           2.7240     2.2480    -3.0360 c          1 NSN       0.896600
      9 O2           1.7680     2.8810    -2.5120 o          1 NSN      -0.636300
     10 O3           3.8980     2.6420    -3.2970 o          1 NSN      -0.636300
     11 C7           1.3370    -1.4300    -2.8780 c          1 NSN       0.472100
     12 N2           0.2090    -1.6570    -3.6380 nz         1 NSN      -0.689400
     13 O4           2.1110    -2.3200    -2.5360 o          1 NSN      -0.309100
     14 N3           2.4670     1.2610     1.7850 nz         1 NSN      -0.675400
     15 H11         -0.3610    -0.8690    -0.5370 hc         1 NSN       0.109700
     16 H12         -0.3610    -0.0310     1.0210 hc         1 NSN       0.109700
     17 H13         -0.3610     0.9000    -0.4840 hc         1 NSN       0.109700
     18 HN1          1.3810     0.6560    -1.4290 hn         1 NSN       0.479800
     19 H4           0.5470     0.5210    -2.4640 h1         1 NSN       0.093700
     20 H51          2.0370     0.7660    -4.4150 hc         1 NSN       0.120200
     21 H52          3.4050     0.2620    -3.4350 hc         1 NSN       0.120200
     22 HN21        -0.4930    -2.0920    -3.0720 hn         1 NSN       0.494800
     23 HN22        -0.1380    -0.7860    -3.9880 hn         1 NSN       0.494800
     24 HN31         1.6760     1.8490     1.6140 hn         1 NSN       0.504133
     25 HN32         3.2690     1.6360     1.3180 hn         1 NSN       0.504133
     26 H23          0.4320    -2.2800    -4.3880 hn         1 NSN       0.494800
     27 H33          2.6330     1.2190     2.7710 hn         1 NSN       0.504133
@<TRIPOS>BOND
     1     1     2 1
     2     1    15 1
     3     1    16 1
     4     1    17 1
     5     2     3 2
     6     2     5 1
     7     3     4 1
     8     3    14 1
     9     5     6 1
    10     5    18 1
    11     6     7 1
    12     6    11 1
    13     6    19 1
    14     7     8 1
    15     7    20 1
    16     7    21 1
    17     8     9 1
    18     8    10 1
    19    11    12 1
    20    11    13 2
    21    12    22 1
    22    12    23 1
    23    14    24 1
    24    14    25 1
    25    26    12 1
    26    27    14 1
@<TRIPOS>SUBSTRUCTURE
     1 NSN         1 TEMP              0 ****  ****    0 ROOT
