@<TRIPOS>MOLECULE
NSN
   27    26     1     0     0
SMALL
bcc


@<TRIPOS>ATOM
      1 C1           0.0000     0.0000     0.0000 c3         1 NSN       0.032100
      2 C2           1.4970     0.0000     0.0000 c2         1 NSN      -0.153200
      3 C3           2.2110     0.0000     1.3120 c2         1 NSN       0.334300
      4 O1           2.4900    -1.0680     1.8310 o          1 NSN      -0.297300
      5 N1           2.1010     0.0260    -1.1370 nu         1 NSN       0.167000
      6 C4           1.5110     0.0290    -2.4870 c3         1 NSN      -0.017500
      7 C5           2.4570     0.7850    -3.4160 c3         1 NSN      -0.194400
      8 C6           2.7240     2.2480    -3.0360 c          1 NSN       0.979600
      9 O2           1.7680     2.8810    -2.5120 o          1 NSN      -0.766300
     10 O3           3.8980     2.6420    -3.2970 o          1 NSN      -0.766300
     11 C7           1.3370    -1.4300    -2.8780 c          1 NSN       0.284100
     12 N2           0.2090    -1.6570    -3.6380 nz         1 NSN       0.198600
     13 O4           2.1110    -2.3200    -2.5360 o          1 NSN      -0.364100
     14 N3           2.4670     1.2610     1.7850 nz         1 NSN       0.216600
     15 H11         -0.3610    -0.8730    -0.5310 hc         1 NSN       0.065367
     16 H12         -0.3610    -0.0230     1.0210 hc         1 NSN       0.065367
     17 H13         -0.3610     0.8960    -0.4900 hc         1 NSN       0.065367
     18 HN1          3.1020     0.0260    -1.1130 hn         1 NSN       0.308800
     19 H4           0.5470     0.5210    -2.4640 h1         1 NSN       0.105700
     20 H51          2.0370     0.7660    -4.4150 hc         1 NSN       0.065200
     21 H52          3.4050     0.2620    -3.4350 hc         1 NSN       0.065200
     22 HN21         0.4640    -2.1360    -4.4790 hn         1 NSN       0.263467
     23 HN22        -0.4380    -2.2170    -3.1180 hn         1 NSN       0.263467
     24 HN31         2.3830     1.2660     2.7830 hn         1 NSN       0.270800
     25 HN32         3.3950     1.5310     1.5270 hn         1 NSN       0.270800
     26 H23         -0.2070    -0.7810    -3.8880 hn         1 NSN       0.263467
     27 H33          1.8070     1.9040     1.3950 hn         1 NSN       0.270800
@<TRIPOS>BOND
     1     1     2 1   
     2     1    15 1   
     3     1    16 1   
     4     1    17 1   
     5     2     3 2   
     6     2     5 1   
     7     3     4 1   
     8     3    14 1   
     9     5     6 1   
    10     5    18 1   
    11     6     7 1   
    12     6    11 1   
    13     6    19 1   
    14     7     8 1   
    15     7    20 1   
    16     7    21 1   
    17     8     9 1   
    18     8    10 1   
    19    11    12 1   
    20    11    13 2   
    21    12    22 1   
    22    12    23 1   
    23    12    26 1   
    24    14    24 1   
    25    14    25 1   
    26    14    27 1   
@<TRIPOS>SUBSTRUCTURE
     1 NSN         1 TEMP              0 ****  ****    0 ROOT
