@<TRIPOS>MOLECULE
molecule
   21    21     1     0     0
SMALL
bcc


@<TRIPOS>ATOM
      1 N            0.0000     0.0000     0.0000 nz         1 NSP      -0.809600
      2 CA           1.4690     0.0000     0.0000 c3         1 NSP       0.182100
      3 CP           1.9720     0.0000     1.4210 ca         1 NSP      -0.525900
      4 CQ1          1.0900     0.0000     2.4840 ca         1 NSP       0.494200
      5 CQ2          3.3400     0.0010     1.6960 ca         1 NSP       0.781200
      6 NR1          1.5660     0.0020     3.7200 nb         1 NSP      -0.745000
      7 NQ2          4.2650    -0.0000     0.6650 nv         1 NSP      -0.982500
      8 NR2          3.7410     0.0060     2.9630 nb         1 NSP      -0.775000
      9 CS           2.8640     0.0010     3.9460 ca         1 NSP       0.776300
     10 CS1          3.3600     0.0020     5.3700 c3         1 NSP      -0.133400
     11 HN1         -0.3340     0.0010    -0.9440 hn         1 NSP       0.460800
     12 HN2         -0.3340    -0.8180     0.4710 hn         1 NSP       0.460800
     13 HCA1         1.8300     0.8840    -0.5110 hx         1 NSP       0.105200
     14 HCA2         1.8300    -0.8850    -0.5110 hx         1 NSP       0.105200
     15 HQ1          0.0210     0.0000     2.3090 h4         1 NSP      -0.007900
     16 HQ21         3.9540    -0.0140    -0.2860 hn         1 NSP       0.456300
     17 HQ22         5.2440     0.0100     0.8710 hn         1 NSP       0.456300
     18 HS11         2.5310    -0.1880     6.0410 hc         1 NSP       0.080033
     19 HS12         3.7960     0.9670     5.6000 hc         1 NSP       0.080033
     20 HS13         4.1080    -0.7710     5.4920 hc         1 NSP       0.080033
     21 HN3         -0.3340     0.8100     0.4830 hn         1 NSP       0.460800
@<TRIPOS>BOND
     1     1     2 1
     2     1    11 1
     3     1    12 1
     4     2     3 1
     5     2    13 1
     6     2    14 1
     7     3     4 ar
     8     3     5 ar
     9     4     6 ar
    10     4    15 1
    11     5     7 1
    12     5     8 ar
    13     6     9 ar
    14     7    16 1
    15     7    17 1
    16     8     9 ar
    17     9    10 1
    18    10    18 1
    19    10    19 1
    20    10    20 1
    21    21     1 1
@<TRIPOS>SUBSTRUCTURE
     1 NSP         1 TEMP              0 ****  ****    0 ROOT
