@<TRIPOS>MOLECULE
molecule
   38    39     1     0     0
SMALL
bcc


@<TRIPOS>ATOM
      1 O12          0.0000     0.0000     0.0000 o          1 NSQ      -0.701200
      2 S10          1.4210     0.0000     0.0000 s6         1 NSQ       1.256800
      3 O13          2.1540     0.0000     1.2160 o          1 NSQ      -0.701200
      4 O11          1.7960    -1.3170    -0.6640 o          1 NSQ      -0.701200
      5 C9           2.0570     1.2710    -1.1270 c3         1 NSQ      -0.247600
      6 C1           1.7390     2.6580    -0.5630 c3         1 NSQ       0.159100
      7 O2           2.4490     2.8490     0.6610 os         1 NSQ      -0.391600
      8 C3           2.2020     4.1090     1.2890 c3         1 NSQ       0.328900
      9 C4           2.6470     5.2380     0.3560 c3         1 NSQ       0.118100
     10 O16          2.3480     6.4990     0.9570 oh         1 NSQ      -0.594800
     11 C8           1.8990     5.1140    -0.9750 c3         1 NSQ       0.112100
     12 O15          2.3610     6.1200    -1.8790 oh         1 NSQ      -0.615800
     13 C6           2.1650     3.7290    -1.5710 c3         1 NSQ       0.114100
     14 O14          1.4140     3.5750    -2.7770 oh         1 NSQ      -0.590800
     15 O1           0.8060     4.2390     1.5630 os         1 NSQ      -0.338900
     16 C25          0.2910     3.4430     2.5380 ca         1 NSQ       0.202100
     17 C26         -1.0570     3.5180     2.8550 ca         1 NSQ      -0.168500
     18 C27         -1.5770     2.7070     3.8450 ca         1 NSQ      -0.042500
     19 C28         -0.7560     1.8230     4.5200 ca         1 NSQ      -0.201200
     20 N32         -1.3160     0.9570     5.5810 no         1 NSQ       0.302200
     21 O33         -2.5000     1.0220     5.8590 o          1 NSQ      -0.227000
     22 O34         -0.5940     0.1770     6.1750 o          1 NSQ      -0.227000
     23 C29          0.5880     1.7470     4.2060 ca         1 NSQ      -0.042500
     24 C30          1.1120     2.5510     3.2120 ca         1 NSQ      -0.168500
     25 H91C         3.1300     1.1600    -1.2280 h1         1 NSQ       0.089700
     26 H92C         1.5890     1.1600    -2.0980 h1         1 NSQ       0.089700
     27 H1           0.6750     2.7420    -0.3780 h1         1 NSQ       0.071700
     28 H6           3.2230     3.6250    -1.7820 h1         1 NSQ       0.048700
     29 H3           2.7630     4.1650     2.2140 h2         1 NSQ       0.078700
     30 H4           3.7130     5.1590     0.1790 h1         1 NSQ       0.063700
     31 H16          3.1510     6.9600     1.1370 ho         1 NSQ       0.400000
     32 H8           0.8360     5.2350    -0.8040 h1         1 NSQ       0.072700
     33 H15          1.6430     6.6820    -2.1180 ho         1 NSQ       0.407000
     34 H14          1.9910     3.6540    -3.5190 ho         1 NSQ       0.402000
     35 H26         -1.6860     4.2580     2.3740 ha         1 NSQ       0.155500
     36 H30          2.0700     2.6770     3.7020 ha         1 NSQ       0.155500
     37 H27         -2.6300     2.7660     4.0940 ha         1 NSQ       0.165000
     38 H29          1.2250     1.0370     4.7190 ha         1 NSQ       0.165000
@<TRIPOS>BOND
     1     1     2 1
     2     2     3 1
     3     2     4 1
     4     2     5 1
     5     5     6 1
     6     6     7 1
     7     6    13 1
     8     7     8 1
     9     8     9 1
    10     8    15 1
    11     9    10 1
    12     9    11 1
    13    11    12 1
    14    11    13 1
    15    13    14 1
    16    15    16 1
    17    16    17 ar
    18    16    24 ar
    19    17    18 ar
    20    18    19 ar
    21    19    20 1
    22    19    23 ar
    23    20    21 1
    24    20    22 1
    25    23    24 ar
    26     5    25 1
    27     5    26 1
    28     6    27 1
    29    13    28 1
    30     8    29 1
    31     9    30 1
    32    10    31 1
    33    11    32 1
    34    12    33 1
    35    14    34 1
    36    17    35 1
    37    24    36 1
    38    18    37 1
    39    23    38 1
@<TRIPOS>SUBSTRUCTURE
     1 NSQ         1 TEMP              0 ****  ****    0 ROOT
