@<TRIPOS>MOLECULE
NSS
   53    55     1     0     0
SMALL
bcc


@<TRIPOS>ATOM
      1 OAX          0.0000     0.0000     0.0000 o          1 NSS      -0.496800
      2 SBE          1.4510     0.0000     0.0000 s6         1 NSS       1.227100
      3 OAY          2.1820     0.0000     1.2540 o          1 NSS      -0.496800
      4 NAT          1.9890    -1.3490    -0.9110 ns         1 NSS      -0.287300
      5 C            1.2230    -1.9910    -1.9360 c          1 NSS       0.607100
      6 O            0.0930    -1.6340    -2.2560 o          1 NSS      -0.479100
      7 CA           1.9370    -3.1620    -2.5840 c3         1 NSS      -0.140500
      8 N            1.1880    -4.4170    -2.2680 nz         1 NSS       0.085400
      9 CB           1.9720    -3.0040    -4.1040 c3         1 NSS      -0.116400
     10 CG           2.7910    -1.8090    -4.5600 c          1 NSS       0.340100
     11 OD1          3.3400    -1.0180    -3.7990 o          1 NSS      -0.337100
     12 ND2          2.8340    -1.6990    -5.9340 nz         1 NSS       0.199600
     13 O5'          1.9620     1.2780    -0.8830 os         1 NSS      -0.456500
     14 C5'          1.6840     2.5900    -0.4170 c3         1 NSS       0.265400
     15 C4'          2.2560     3.5990    -1.4020 c3         1 NSS       0.143100
     16 C3'          1.9970     5.0450    -0.9910 c3         1 NSS       0.146100
     17 O3'          3.0110     5.8740    -1.5600 oh         1 NSS      -0.546800
     18 C2'          0.6690     5.3380    -1.6610 c3         1 NSS       0.142100
     19 O2'          0.4460     6.7180    -1.8660 oh         1 NSS      -0.525800
     20 C1'          0.8210     4.5870    -2.9750 c3         1 NSS       0.151800
     21 O4'          1.6000     3.4120    -2.6770 os         1 NSS      -0.418600
     22 N9          -0.4470     4.1950    -3.5870 na         1 NSS       0.175000
     23 C4          -1.1510     4.8880    -4.5330 ca         1 NSS       0.292800
     24 N3          -0.8280     6.0630    -5.0920 nb         1 NSS      -0.673000
     25 C2          -1.7700     6.4330    -5.9870 ca         1 NSS       0.707900
     26 N1          -2.9070     5.7880    -6.3400 nb         1 NSS      -0.721000
     27 C6          -3.1700     4.6050    -5.7340 ca         1 NSS       0.589200
     28 N6          -4.3330     3.8870    -6.0580 nv         1 NSS      -0.474500
     29 C5          -2.2720     4.1150    -4.7910 ca         1 NSS      -0.250200
     30 N7          -2.2630     2.9760    -4.0260 nc         1 NSS      -0.488100
     31 C8          -1.1570     3.0540    -3.3160 cd         1 NSS       0.219700
     32 HAT          2.8990    -1.7140    -0.7120 hn         1 NSS       0.232500
     33 HA           2.9480    -3.2330    -2.2000 hx         1 NSS       0.111700
     34 HN1          0.2470    -4.3370    -2.6000 hn         1 NSS       0.242467
     35 HN2          1.1810    -4.5610    -1.2780 hn         1 NSS       0.242467
     36 HN3          1.6340    -5.1940    -2.7150 hn         1 NSS       0.242467
     37 HB1          0.9570    -2.8890    -4.4650 hc         1 NSS       0.074200
     38 HB2          2.3970    -3.9020    -4.5370 hc         1 NSS       0.074200
     39 HD21         3.3440    -0.8760    -6.1870 hn         1 NSS       0.261467
     40 HD22         3.2880    -2.5040    -6.3180 hn         1 NSS       0.261467
     41 H5'1         0.6130     2.7280    -0.3380 h1         1 NSS       0.021200
     42 H5'2         2.1410     2.7340     0.5550 h1         1 NSS       0.021200
     43 H4'          3.3220     3.4410    -1.5170 h1         1 NSS       0.053700
     44 H3'          1.9350     5.1500     0.0850 h1         1 NSS       0.027700
     45 H2           3.4950     6.2960    -0.8690 ho         1 NSS       0.406000
     46 H2'         -0.1390     4.9080    -1.0820 h1         1 NSS       0.015700
     47 H1          -0.1590     7.0380    -1.2180 ho         1 NSS       0.402000
     48 H1'          1.3750     5.2070    -3.6700 h2         1 NSS       0.088700
     49 H3          -1.5920     7.3760    -6.4910 h5         1 NSS      -0.006900
     50 HN61        -4.9700     4.2480    -6.7410 hn         1 NSS       0.280300
     51 HN62        -4.5240     3.0140    -5.6080 hn         1 NSS       0.280300
     52 H8          -0.8430     2.3030    -2.6020 h5         1 NSS       0.018800
     53 HD23         1.9020    -1.6430    -6.2930 hn         1 NSS       0.261467
@<TRIPOS>BOND
     1     1     2 2   
     2     2     3 2   
     3     2     4 1   
     4     2    13 1   
     5     4     5 1   
     6     4    32 1   
     7     5     6 2   
     8     5     7 1   
     9     7     8 1   
    10     7     9 1   
    11     7    33 1   
    12     8    34 1   
    13     8    35 1   
    14     8    36 1   
    15     9    10 1   
    16     9    37 1   
    17     9    38 1   
    18    10    11 2   
    19    10    12 1   
    20    12    39 1   
    21    12    40 1   
    22    12    53 1   
    23    13    14 1   
    24    14    15 1   
    25    14    41 1   
    26    14    42 1   
    27    15    16 1   
    28    15    21 1   
    29    15    43 1   
    30    16    17 1   
    31    16    18 1   
    32    16    44 1   
    33    17    45 1   
    34    18    19 1   
    35    18    20 1   
    36    18    46 1   
    37    19    47 1   
    38    20    21 1   
    39    20    22 1   
    40    20    48 1   
    41    22    23 1   
    42    22    31 1   
    43    23    24 ar  
    44    23    29 ar  
    45    24    25 ar  
    46    25    26 ar  
    47    25    49 1   
    48    26    27 ar  
    49    27    28 1   
    50    27    29 ar  
    51    28    50 1   
    52    28    51 1   
    53    29    30 1   
    54    30    31 2   
    55    31    52 1   
@<TRIPOS>SUBSTRUCTURE
     1 NSS         1 TEMP              0 ****  ****    0 ROOT
