@<TRIPOS>MOLECULE
molecule
   28    29     1     0     0
SMALL
bcc


@<TRIPOS>ATOM
      1 N1           0.0000     0.0000     0.0000 nu         1 NST      -0.748500
      2 C2           1.3970     0.0000     0.0000 ca         1 NST       0.166600
      3 C3           2.0940     0.0000     1.2020 ca         1 NST      -0.130000
      4 C4           2.0920    -0.0040    -1.2030 ca         1 NST      -0.088000
      5 C5           3.4740    -0.0000     1.1970 ca         1 NST      -0.126000
      6 C6           3.4730     0.0020    -1.2000 ca         1 NST      -0.147200
      7 C7           4.1640     0.0020    -0.0020 ca         1 NST      -0.105000
      8 N2           4.2150     0.0040    -2.4810 no         1 NST       0.295200
      9 S13         -0.8270     1.0210     1.0080 sy         1 NST       1.455200
     10 C15         -0.4370     2.6690     0.5240 cc         1 NST      -0.387500
     11 O16         -0.2480     0.8480     2.2940 o          1 NST      -0.641800
     12 O17         -2.2010     0.8420     0.6950 o          1 NST      -0.641800
     13 C18         -0.7920     3.1620    -0.7230 cd         1 NST       0.146300
     14 C19          0.2420     3.5200     1.3600 cc         1 NST      -0.106000
     15 S20         -0.1560     4.8270    -0.6540 ss         1 NST      -0.115800
     16 C21         -1.5070     2.4910    -1.8100 c          1 NST       0.893200
     17 C22          0.5190     4.7820     0.9410 cd         1 NST      -0.150100
     18 O23         -1.8520     3.1790    -2.9170 o          1 NST      -0.797300
     19 O24         -1.7900     1.3110    -1.7150 o          1 NST      -0.797300
     20 O1           5.4340     0.0040    -2.4790 o          1 NST      -0.216500
     21 O2           3.6080     0.0050    -3.5360 o          1 NST      -0.216500
     22 HN1         -0.5000    -0.6550    -0.5680 hn         1 NST       0.483800
     23 H3           1.5540    -0.0010     2.1410 ha         1 NST       0.192000
     24 H4           1.5510    -0.0040    -2.1420 ha         1 NST       0.186000
     25 H5           4.0180    -0.0000     2.1340 ha         1 NST       0.139000
     26 H7           5.2470     0.0040    -0.0030 ha         1 NST       0.152000
     27 H19          0.5500     3.1900     2.3450 ha         1 NST       0.138000
     28 H22          1.0390     5.5700     1.4730 h4         1 NST       0.167000
@<TRIPOS>BOND
     1     1     2 1
     2     1     9 1
     3     1    22 1
     4     2     3 ar
     5     2     4 ar
     6     3     5 ar
     7     3    23 1
     8     4     6 ar
     9     4    24 1
    10     5     7 ar
    11     5    25 1
    12     6     7 ar
    13     6     8 1
    14     7    26 1
    15     8    20 1
    16     8    21 1
    17     9    10 1
    18     9    11 2
    19     9    12 2
    20    10    13 2
    21    10    14 1
    22    13    15 1
    23    13    16 1
    24    14    17 2
    25    14    27 1
    26    15    17 1
    27    16    18 1
    28    16    19 1
    29    17    28 1
@<TRIPOS>SUBSTRUCTURE
     1 NST         1 TEMP              0 ****  ****    0 ROOT
