@<TRIPOS>MOLECULE
NSZ
  103   106     1     0     0
SMALL
bcc


@<TRIPOS>ATOM
      1 C1           0.0000     0.0000     0.0000 c3         1 NSZ      -0.026100
      2 C2           1.5070     0.0000     0.0000 c          1 NSZ       0.565100
      3 O3           2.1130     0.0000     1.0510 o          1 NSZ      -0.587100
      4 C4          -1.4270    -0.0010     4.0310 cp         1 NSZ      -0.019000
      5 C5          -1.1930     1.2040     3.3720 ca         1 NSZ      -0.097000
      6 C6          -0.7330     1.1990     2.0700 ca         1 NSZ      -0.080500
      7 C7          -0.5030    -0.0000     1.4210 ca         1 NSZ      -0.082300
      8 C8          -0.7330    -1.2000     2.0690 ca         1 NSZ      -0.080500
      9 C9          -1.1940    -1.2060     3.3700 ca         1 NSZ      -0.097000
     10 C10         -2.8260    -0.0030     8.0460 ca         1 NSZ      -0.097000
     11 C11         -2.1490    -1.2080     6.0900 ca         1 NSZ      -0.098500
     12 C12         -1.9150    -0.0020     5.4310 cp         1 NSZ      -0.036000
     13 C13         -2.6030    -1.2020     7.3930 ca         1 NSZ      -0.097500
     14 C14         -2.1510     1.2030     6.0900 ca         1 NSZ      -0.098500
     15 C15         -2.6010     1.1970     7.3940 ca         1 NSZ      -0.097500
     16 N16          2.1820    -0.0000    -1.1670 ns         1 NSZ      -0.200900
     17 C17          3.6470     0.0000    -1.1670 c3         1 NSZ      -0.025300
     18 C18          4.1500     0.6010    -2.4530 c          1 NSZ       0.569100
     19 O19          3.3610     0.9910    -3.2890 o          1 NSZ      -0.686100
     20 C20          4.1560    -1.4370    -1.0410 c3         1 NSZ       0.048700
     21 C22          4.2480    -3.8350     0.4770 c3         1 NSZ       0.092000
     22 N29          5.4740     0.7050    -2.6770 ns         1 NSZ      -0.154900
     23 C30          5.9630     1.2890    -3.9270 c3         1 NSZ      -0.055300
     24 C31          6.0150     0.2090    -5.0090 c3         1 NSZ      -0.037400
     25 C32          4.5960    -0.2750    -5.3150 c3         1 NSZ      -0.051400
     26 C33          4.6470    -1.3560    -6.3960 c3         1 NSZ       0.161800
     27 N34          3.2890    -1.8190    -6.6900 nu         1 NSZ      -0.481200
     28 C35          3.0840    -2.7960    -7.6360 c2         1 NSZ       0.243100
     29 N36          1.8090    -3.2300    -7.9110 nz         1 NSZ       0.198400
     30 N37          4.0990    -3.3100    -8.2710 n2         1 NSZ      -0.629100
     31 C38          7.3450     1.8510    -3.7130 c          1 NSZ       0.559100
     32 O39          7.8700     1.7730    -2.6230 o          1 NSZ      -0.631100
     33 N40          7.9970     2.4430    -4.7340 ns         1 NSZ      -0.154900
     34 C41          9.3400     2.9900    -4.5260 c3         1 NSZ      -0.057300
     35 C42          9.6000     4.0820    -5.5320 c          1 NSZ       0.562100
     36 O43          8.7470     4.3730    -6.3440 o          1 NSZ      -0.657100
     37 C44         10.3760     1.8780    -4.7000 c3         1 NSZ       0.021900
     38 C45         10.1930     0.8470    -3.6170 ca         1 NSZ      -0.081300
     39 C46          9.3470    -0.2270    -3.8210 ca         1 NSZ      -0.095000
     40 C47         10.8770     0.9710    -2.4220 ca         1 NSZ      -0.095000
     41 C48          9.1800    -1.1740    -2.8270 ca         1 NSZ      -0.091000
     42 C49         10.7090     0.0260    -1.4280 ca         1 NSZ      -0.091000
     43 C50          9.8580    -1.0450    -1.6290 ca         1 NSZ      -0.090000
     44 C52         12.6940     7.4550    -7.2980 ca         1 NSZ      -0.100300
     45 C53         12.3660     8.7650    -6.9990 ca         1 NSZ      -0.094000
     46 C54         12.6100     9.7660    -7.9200 ca         1 NSZ      -0.094000
     47 C55         13.1810     9.4590    -9.1390 ca         1 NSZ      -0.094000
     48 C56         13.5090     8.1500    -9.4390 ca         1 NSZ      -0.094000
     49 C57         13.2650     7.1480    -8.5190 ca         1 NSZ      -0.094000
     50 C58         12.4340     6.3640    -6.2910 c3         1 NSZ       0.022900
     51 C59         11.0320     5.7930    -6.5090 c3         1 NSZ       0.046000
     52 N60         10.7800     4.7320    -5.5300 ns         1 NSZ      -0.175900
     53 SG2          3.5500    -2.1600     0.5080 ss         1 NSZ      -0.329200
     54 H11         -0.3610     0.8850    -0.5110 hc         1 NSZ       0.026700
     55 H21         -0.3610    -0.8840    -0.5110 hc         1 NSZ       0.026700
     56 H5          -1.3720     2.1440     3.8800 ha         1 NSZ       0.113000
     57 H6          -0.5510     2.1350     1.5570 ha         1 NSZ       0.101000
     58 H8          -0.5520    -2.1360     1.5550 ha         1 NSZ       0.101000
     59 H9          -1.3740    -2.1470     3.8770 ha         1 NSZ       0.113000
     60 H10         -3.1810    -0.0030     9.0690 ha         1 NSZ       0.104000
     61 H11A        -1.9750    -2.1470     5.5800 ha         1 NSZ       0.110000
     62 H13         -2.7830    -2.1380     7.9070 ha         1 NSZ       0.103500
     63 H14         -1.9760     2.1440     5.5810 ha         1 NSZ       0.110000
     64 H15         -2.7820     2.1330     7.9090 ha         1 NSZ       0.103500
     65 HN16         1.6810    -0.0010    -2.0330 hn         1 NSZ       0.185500
     66 H17          4.0070     0.5850    -0.3290 h1         1 NSZ       0.092700
     67 H120         5.2390    -1.4370    -1.0410 h1         1 NSZ       0.027700
     68 H220         3.7950    -2.0220    -1.8780 h1         1 NSZ       0.027700
     69 H122         3.9240    -4.3450    -0.4220 h1         1 NSZ       0.030367
     70 H222         5.3290    -3.7760     0.4890 h1         1 NSZ       0.030367
     71 H322         3.9060    -4.3850     1.3460 h1         1 NSZ       0.030367
     72 HN29         6.1240     0.3860    -1.9860 hn         1 NSZ       0.213500
     73 H30          5.2950     2.0820    -4.2410 h1         1 NSZ       0.076700
     74 H131         6.6130    -0.6240    -4.6590 hc         1 NSZ       0.030200
     75 H231         6.4590     0.6190    -5.9080 hc         1 NSZ       0.030200
     76 H132         4.1520    -0.6850    -4.4160 hc         1 NSZ       0.049200
     77 H232         3.9990     0.5580    -5.6660 hc         1 NSZ       0.049200
     78 H133         5.0910    -0.9470    -7.2960 h1         1 NSZ       0.029700
     79 H233         5.2450    -2.1890    -6.0460 h1         1 NSZ       0.029700
     80 HN34         2.5090    -1.4240    -6.2020 hn         1 NSZ       0.312800
     81 H136         1.2450    -2.4530    -8.1920 hn         1 NSZ       0.222800
     82 H236         1.8390    -3.9050    -8.6490 hn         1 NSZ       0.222800
     83 H137         5.0280    -2.9940    -8.0710 hn         1 NSZ       0.385400
     84 HN40         7.5630     2.5110    -5.6330 hn         1 NSZ       0.196500
     85 H41          9.4120     3.3970    -3.5250 h1         1 NSZ       0.075700
     86 H144        10.2460     1.4120    -5.6690 hc         1 NSZ       0.026200
     87 H244        11.3720     2.3000    -4.6330 hc         1 NSZ       0.026200
     88 H46          8.8160    -0.3280    -4.7590 ha         1 NSZ       0.097500
     89 H47         11.5440     1.8100    -2.2640 ha         1 NSZ       0.097500
     90 H48          8.5150    -2.0140    -2.9850 ha         1 NSZ       0.099000
     91 H49         11.2430     0.1250    -0.4900 ha         1 NSZ       0.099000
     92 H50          9.7270    -1.7870    -0.8500 ha         1 NSZ       0.104000
     93 H53         11.9190     9.0060    -6.0420 ha         1 NSZ       0.104000
     94 H54         12.3530    10.7920    -7.6850 ha         1 NSZ       0.105500
     95 H55         13.3720    10.2440    -9.8610 ha         1 NSZ       0.106000
     96 H56         13.9560     7.9100   -10.3960 ha         1 NSZ       0.105500
     97 H57         13.5220     6.1230    -8.7540 ha         1 NSZ       0.104000
     98 H58         13.1680     5.5770    -6.4140 hc         1 NSZ       0.020700
     99 H59         10.9590     5.3850    -7.5100 h1         1 NSZ       0.033700
    100 HN60        11.4720     4.5110    -4.8430 hn         1 NSZ       0.179500
    101 H58A        12.5070     6.7720    -5.2900 hc         1 NSZ       0.020700
    102 H59A        10.2980     6.5800    -6.3850 h1         1 NSZ       0.033700
    103 H363         1.4170    -3.6530    -7.0930 hn         1 NSZ       0.222800
@<TRIPOS>BOND
     1     1     2 1   
     2     1     7 1   
     3     1    54 1   
     4     1    55 1   
     5     2     3 2   
     6     2    16 1   
     7     4     5 ar  
     8     4     9 ar  
     9     4    12 1   
    10     5     6 ar  
    11     5    56 1   
    12     6     7 ar  
    13     6    57 1   
    14     7     8 ar  
    15     8     9 ar  
    16     8    58 1   
    17     9    59 1   
    18    10    13 ar  
    19    10    15 ar  
    20    10    60 1   
    21    11    12 ar  
    22    11    13 ar  
    23    11    61 1   
    24    12    14 ar  
    25    13    62 1   
    26    14    15 ar  
    27    14    63 1   
    28    15    64 1   
    29    16    17 1   
    30    16    65 1   
    31    17    18 1   
    32    17    20 1   
    33    17    66 1   
    34    18    19 2   
    35    18    22 1   
    36    20    53 1   
    37    20    67 1   
    38    20    68 1   
    39    21    53 1   
    40    21    69 1   
    41    21    70 1   
    42    21    71 1   
    43    22    23 1   
    44    22    72 1   
    45    23    24 1   
    46    23    31 1   
    47    23    73 1   
    48    24    25 1   
    49    24    74 1   
    50    24    75 1   
    51    25    26 1   
    52    25    76 1   
    53    25    77 1   
    54    26    27 1   
    55    26    78 1   
    56    26    79 1   
    57    27    28 1   
    58    27    80 1   
    59    28    29 1   
    60    28    30 2   
    61    29    81 1   
    62    29    82 1   
    63    29   103 1   
    64    30    83 1   
    65    31    32 2   
    66    31    33 1   
    67    33    34 1   
    68    33    84 1   
    69    34    35 1   
    70    34    37 1   
    71    34    85 1   
    72    35    36 2   
    73    35    52 1   
    74    37    38 1   
    75    37    86 1   
    76    37    87 1   
    77    38    39 ar  
    78    38    40 ar  
    79    39    41 ar  
    80    39    88 1   
    81    40    42 ar  
    82    40    89 1   
    83    41    43 ar  
    84    41    90 1   
    85    42    43 ar  
    86    42    91 1   
    87    43    92 1   
    88    44    45 ar  
    89    44    49 ar  
    90    44    50 1   
    91    45    46 ar  
    92    45    93 1   
    93    46    47 ar  
    94    46    94 1   
    95    47    48 ar  
    96    47    95 1   
    97    48    49 ar  
    98    48    96 1   
    99    49    97 1   
   100    50    51 1   
   101    50    98 1   
   102    50   101 1   
   103    51    52 1   
   104    51    99 1   
   105    51   102 1   
   106    52   100 1   
@<TRIPOS>SUBSTRUCTURE
     1 NSZ         1 TEMP              0 ****  ****    0 ROOT
