@<TRIPOS>MOLECULE
molecule
  103   106     1     0     0
SMALL
bcc


@<TRIPOS>ATOM
      1 C1           0.0000     0.0000     0.0000 c3         1 NSZ      -0.099100
      2 C2           1.5070     0.0000     0.0000 c          1 NSZ       0.657100
      3 O3           2.1130     0.0000     1.0510 o          1 NSZ      -0.559100
      4 C4          -1.4270    -0.0010     4.0310 cp         1 NSZ      -0.021000
      5 C5          -1.1930     1.2040     3.3720 ca         1 NSZ      -0.117000
      6 C6          -0.7330     1.1990     2.0700 ca         1 NSZ      -0.107000
      7 C7          -0.5030    -0.0000     1.4210 ca         1 NSZ      -0.078300
      8 C8          -0.7330    -1.2000     2.0690 ca         1 NSZ      -0.107000
      9 C9          -1.1940    -1.2060     3.3700 ca         1 NSZ      -0.117000
     10 C10         -2.8260    -0.0030     8.0460 ca         1 NSZ      -0.122000
     11 C11         -2.1490    -1.2080     6.0900 ca         1 NSZ      -0.117500
     12 C12         -1.9150    -0.0020     5.4310 cp         1 NSZ      -0.041000
     13 C13         -2.6030    -1.2020     7.3930 ca         1 NSZ      -0.125500
     14 C14         -2.1510     1.2030     6.0900 ca         1 NSZ      -0.117500
     15 C15         -2.6010     1.1970     7.3940 ca         1 NSZ      -0.125500
     16 N16          2.1820    -0.0000    -1.1670 ns         1 NSZ      -0.583900
     17 C17          3.6470     0.0000    -1.1670 c3         1 NSZ       0.064700
     18 C18          4.1500     0.6010    -2.4530 c          1 NSZ       0.659100
     19 O19          3.3610     0.9910    -3.2890 o          1 NSZ      -0.643100
     20 C20          4.1560    -1.4370    -1.0410 c3         1 NSZ      -0.024300
     21 C22          4.2480    -3.8350     0.4770 c3         1 NSZ      -0.035000
     22 N29          5.4740     0.7050    -2.6770 ns         1 NSZ      -0.558900
     23 C30          5.9630     1.2890    -3.9270 c3         1 NSZ       0.046700
     24 C31          6.0150     0.2090    -5.0090 c3         1 NSZ      -0.089400
     25 C32          4.5960    -0.2750    -5.3150 c3         1 NSZ      -0.100400
     26 C33          4.6470    -1.3560    -6.3960 c3         1 NSZ       0.240800
     27 N34          3.2890    -1.8190    -6.6900 nu         1 NSZ      -0.850200
     28 C35          3.0840    -2.7960    -7.6360 c2         1 NSZ       0.687100
     29 N36          1.8090    -3.2300    -7.9110 nz         1 NSZ      -0.807600
     30 N37          4.0990    -3.3100    -8.2710 n2         1 NSZ      -0.785100
     31 C38          7.3450     1.8510    -3.7130 c          1 NSZ       0.652100
     32 O39          7.8700     1.7730    -2.6230 o          1 NSZ      -0.587100
     33 N40          7.9970     2.4430    -4.7340 ns         1 NSZ      -0.562900
     34 C41          9.3400     2.9900    -4.5260 c3         1 NSZ       0.045700
     35 C42          9.6000     4.0820    -5.5320 c          1 NSZ       0.650100
     36 O43          8.7470     4.3730    -6.3440 o          1 NSZ      -0.614100
     37 C44         10.3760     1.8780    -4.7000 c3         1 NSZ      -0.047100
     38 C45         10.1930     0.8470    -3.6170 ca         1 NSZ      -0.071300
     39 C46          9.3470    -0.2270    -3.8210 ca         1 NSZ      -0.118000
     40 C47         10.8770     0.9710    -2.4220 ca         1 NSZ      -0.118000
     41 C48          9.1800    -1.1740    -2.8270 ca         1 NSZ      -0.120500
     42 C49         10.7090     0.0260    -1.4280 ca         1 NSZ      -0.120500
     43 C50          9.8580    -1.0450    -1.6290 ca         1 NSZ      -0.120000
     44 C52         12.6940     7.4550    -7.2980 ca         1 NSZ      -0.092300
     45 C53         12.3660     8.7650    -6.9990 ca         1 NSZ      -0.121000
     46 C54         12.6100     9.7660    -7.9200 ca         1 NSZ      -0.123000
     47 C55         13.1810     9.4590    -9.1390 ca         1 NSZ      -0.122000
     48 C56         13.5090     8.1500    -9.4390 ca         1 NSZ      -0.123000
     49 C57         13.2650     7.1480    -8.5190 ca         1 NSZ      -0.121000
     50 C58         12.4340     6.3640    -6.2910 c3         1 NSZ      -0.051100
     51 C59         11.0320     5.7930    -6.5090 c3         1 NSZ       0.113000
     52 N60         10.7800     4.7320    -5.5300 ns         1 NSZ      -0.577900
     53 SG2          3.5500    -2.1600     0.5080 ss         1 NSZ      -0.247200
     54 H11         -0.3610    -0.8840    -0.5110 hc         1 NSZ       0.062700
     55 H21         -0.3610     0.8850    -0.5110 hc         1 NSZ       0.062700
     56 H5          -1.3720     2.1440     3.8800 ha         1 NSZ       0.136000
     57 H6          -0.5510     2.1350     1.5570 ha         1 NSZ       0.127500
     58 H8          -0.5520    -2.1360     1.5550 ha         1 NSZ       0.127500
     59 H9          -1.3740    -2.1470     3.8770 ha         1 NSZ       0.136000
     60 H10         -3.1810    -0.0030     9.0690 ha         1 NSZ       0.132000
     61 H11A        -1.9750    -2.1470     5.5800 ha         1 NSZ       0.131500
     62 H13         -2.7830    -2.1380     7.9070 ha         1 NSZ       0.132000
     63 H14         -1.9760     2.1440     5.5810 ha         1 NSZ       0.131500
     64 H15         -2.7820     2.1330     7.9090 ha         1 NSZ       0.132000
     65 HN16         1.6820     0.0300    -2.0330 hn         1 NSZ       0.322500
     66 H17          4.0070     0.5850    -0.3290 h1         1 NSZ       0.120700
     67 H120         5.2390    -1.4370    -1.0410 h1         1 NSZ       0.052200
     68 H220         3.7950    -2.0220    -1.8780 h1         1 NSZ       0.052200
     69 H122         3.9350    -4.3400    -0.4290 h1         1 NSZ       0.058033
     70 H222         5.3290    -3.7770     0.5030 h1         1 NSZ       0.058033
     71 H322         3.8950    -4.3890     1.3390 h1         1 NSZ       0.058033
     72 HN29         6.1240     0.3860    -1.9860 hn         1 NSZ       0.350500
     73 H30          5.2950     2.0820    -4.2410 h1         1 NSZ       0.102700
     74 H131         6.4590     0.6190    -5.9080 hc         1 NSZ       0.059700
     75 H231         6.6130    -0.6240    -4.6590 hc         1 NSZ       0.059700
     76 H132         3.9990     0.5580    -5.6660 hc         1 NSZ       0.069200
     77 H232         4.1520    -0.6850    -4.4160 hc         1 NSZ       0.069200
     78 H133         5.0910    -0.9470    -7.2960 h1         1 NSZ       0.071200
     79 H233         5.2450    -2.1890    -6.0460 h1         1 NSZ       0.071200
     80 HN34         2.5090    -1.4240    -6.2020 hn         1 NSZ       0.459800
     81 H136         1.2930    -3.3120    -7.0570 hn         1 NSZ       0.466800
     82 H236         1.3550    -2.5730    -8.5130 hn         1 NSZ       0.466800
     83 H137         3.9520    -4.0210    -8.9600 hn         1 NSZ       0.438400
     84 HN40         7.5630     2.5110    -5.6330 hn         1 NSZ       0.334500
     85 H41          9.4120     3.3970    -3.5250 h1         1 NSZ       0.102700
     86 H144        10.2460     1.4120    -5.6690 hc         1 NSZ       0.058700
     87 H244        11.3720     2.3000    -4.6330 hc         1 NSZ       0.058700
     88 H46          8.8160    -0.3280    -4.7590 ha         1 NSZ       0.121500
     89 H47         11.5440     1.8100    -2.2640 ha         1 NSZ       0.121500
     90 H48          8.5150    -2.0140    -2.9850 ha         1 NSZ       0.126500
     91 H49         11.2430     0.1250    -0.4900 ha         1 NSZ       0.126500
     92 H50          9.7270    -1.7870    -0.8500 ha         1 NSZ       0.131000
     93 H53         11.9190     9.0060    -6.0420 ha         1 NSZ       0.130000
     94 H54         12.3530    10.7920    -7.6850 ha         1 NSZ       0.134000
     95 H55         13.3720    10.2440    -9.8610 ha         1 NSZ       0.134000
     96 H56         13.9560     7.9100   -10.3960 ha         1 NSZ       0.134000
     97 H57         13.5220     6.1230    -8.7540 ha         1 NSZ       0.130000
     98 H58         12.5070     6.7720    -5.2900 hc         1 NSZ       0.052700
     99 H59         10.2980     6.5800    -6.3850 h1         1 NSZ       0.061700
    100 HN60        11.4730     4.5100    -4.8430 hn         1 NSZ       0.318500
    101 H58A        13.1680     5.5770    -6.4140 hc         1 NSZ       0.052700
    102 H59A        10.9590     5.3850    -7.5100 h1         1 NSZ       0.061700
    103 H363         1.8500    -4.1300    -8.3470 hn         1 NSZ       0.466800
@<TRIPOS>BOND
     1    15    14 ar
     2    15    10 ar
     3    14    12 ar
     4    10    13 ar
     5    12     4 1
     6    12    11 ar
     7     9     4 ar
     8     9     8 ar
     9    30    28 2
    10    13    11 ar
    11    21    53 1
    12     4     5 ar
    13     8     7 ar
    14    29    28 1
    15    28    27 1
    16     7     6 ar
    17     7     1 1
    18     5     6 ar
    19     3     2 2
    20    53    20 1
    21     1     2 1
    22     2    16 1
    23    20    17 1
    24    27    26 1
    25    16    17 1
    26    17    18 1
    27    19    18 2
    28    26    25 1
    29    25    24 1
    30    18    22 1
    31    22    23 1
    32    24    23 1
    33    23    31 1
    34    36    35 2
    35    31    33 1
    36    31    32 2
    37    33    34 1
    38    35    34 1
    39    35    52 1
    40    34    37 1
    41    49    48 ar
    42    49    44 ar
    43    37    38 1
    44    50    51 1
    45    50    44 1
    46    48    47 ar
    47    51    52 1
    48    44    45 ar
    49    40    38 ar
    50    40    42 ar
    51    38    39 ar
    52    42    43 ar
    53    47    46 ar
    54    45    46 ar
    55    39    41 ar
    56    43    41 ar
    57     1    54 1
    58     1    55 1
    59     5    56 1
    60     6    57 1
    61     8    58 1
    62     9    59 1
    63    10    60 1
    64    11    61 1
    65    13    62 1
    66    14    63 1
    67    15    64 1
    68    16    65 1
    69    17    66 1
    70    20    67 1
    71    20    68 1
    72    21    69 1
    73    21    70 1
    74    21    71 1
    75    22    72 1
    76    23    73 1
    77    24    74 1
    78    24    75 1
    79    25    76 1
    80    25    77 1
    81    26    78 1
    82    26    79 1
    83    27    80 1
    84    29    81 1
    85    29    82 1
    86    30    83 1
    87    33    84 1
    88    34    85 1
    89    37    86 1
    90    37    87 1
    91    39    88 1
    92    40    89 1
    93    41    90 1
    94    42    91 1
    95    43    92 1
    96    45    93 1
    97    46    94 1
    98    47    95 1
    99    48    96 1
   100    49    97 1
   101    50    98 1
   102    51    99 1
   103    52   100 1
   104    50   101 1
   105    51   102 1
   106   103    29 1
@<TRIPOS>SUBSTRUCTURE
     1 NSZ         1 TEMP              0 ****  ****    0 ROOT
