@<TRIPOS>MOLECULE
molecule
   59    60     1     0     0
SMALL
bcc


@<TRIPOS>ATOM
      1 C1           0.0000     0.0000     0.0000 c2         1 NT        0.676100
      2 N1           1.3040     0.0000     0.0000 n2         1 NT       -0.812100
      3 N2          -0.6870     0.0000     1.1900 nz         1 NT       -0.740600
      4 N3          -0.6860     0.0010    -1.1910 nu         1 NT       -0.902200
      5 C2           0.0460     0.0000    -2.4590 c3         1 NT        0.153800
      6 C3          -0.9330     0.0010    -3.6050 c          1 NT        0.660100
      7 O1          -2.1250     0.0010    -3.3840 o          1 NT       -0.607100
      8 N4          -0.4820     0.0000    -4.8750 ns         1 NT       -0.420100
      9 C4          -1.3960     0.0010    -5.9450 cc         1 NT       -0.054400
     10 C5          -2.7950     0.0000    -5.8380 cc         1 NT       -0.159000
     11 C6          -3.3000     0.0000    -7.1210 cd         1 NT       -0.179900
     12 N5          -2.2330    -0.0060    -7.9900 na         1 NT        0.007900
     13 C8          -2.3230    -0.0080    -9.4520 c3         1 NT        0.035600
     14 C7          -1.0830     0.0000    -7.2670 cd         1 NT       -0.149300
     15 C9          -4.7190    -0.0010    -7.4930 c          1 NT        0.716700
     16 O2          -5.0410    -0.0990    -8.6620 o          1 NT       -0.631100
     17 N6          -5.6640     0.1080    -6.5400 ns         1 NT       -0.433100
     18 C10         -7.0230    -0.0100    -6.8820 cc         1 NT       -0.029400
     19 C11         -7.5360    -0.2400    -8.1650 cc         1 NT       -0.159000
     20 C12         -8.9090    -0.2910    -8.0520 cd         1 NT       -0.195900
     21 N7          -9.2260    -0.0880    -6.7280 na         1 NT        0.006900
     22 C14        -10.5790    -0.0620    -6.1690 c3         1 NT        0.033600
     23 C13         -8.0750     0.0790    -6.0250 cd         1 NT       -0.162300
     24 C15         -9.8600    -0.5130    -9.1450 c          1 NT        0.717700
     25 O3         -11.0570    -0.4400    -8.9350 o          1 NT       -0.608100
     26 N8          -9.4110    -0.7980   -10.3830 ns         1 NT       -0.594900
     27 C16        -10.3540    -0.9100   -11.4990 c3         1 NT        0.139000
     28 C17         -9.5900    -1.2370   -12.7810 c3         1 NT       -0.138700
     29 C18        -10.5600    -1.3520   -13.9290 c2         1 NT        0.463200
     30 N9         -11.8260    -1.1780   -13.7260 n2         1 NT       -0.647100
     31 N10        -10.1020    -1.6420   -15.1870 nz         1 NT       -0.804600
     32 HN1          1.8060     0.0000    -0.8660 hn         1 NT        0.473400
     33 HN21        -0.0370     0.0030     1.9510 hn         1 NT        0.482133
     34 HN22        -1.2600    -0.8190     1.2450 hn         1 NT        0.482133
     35 HN3         -1.6870     0.0010    -1.1910 hn         1 NT        0.470800
     36 H21          0.6680    -0.8850    -2.5160 h1         1 NT        0.078700
     37 H22          0.6690     0.8840    -2.5160 h1         1 NT        0.078700
     38 HN4          0.5010     0.0250    -5.0570 hn         1 NT        0.331500
     39 H5          -3.3710     0.0040    -4.9200 ha         1 NT        0.183000
     40 H81         -2.8260    -0.9100    -9.7810 h1         1 NT        0.065700
     41 H82         -2.8830     0.8590    -9.7810 h1         1 NT        0.065700
     42 H83         -1.3260     0.0230    -9.8750 h1         1 NT        0.065700
     43 H7          -0.0800    -0.0020    -7.6770 h4         1 NT        0.177000
     44 HN6         -5.4010     0.3090    -5.5950 hn         1 NT        0.331500
     45 H11         -6.9600    -0.3610    -9.0750 ha         1 NT        0.181000
     46 H141       -11.1390     0.7510    -6.6150 h1         1 NT        0.066367
     47 H142       -10.5250     0.0820    -5.0970 h1         1 NT        0.066367
     48 H143       -11.0760    -1.0010    -6.3820 h1         1 NT        0.066367
     49 H13         -8.0080     0.2570    -4.9580 h4         1 NT        0.174000
     50 HN8         -8.4320    -0.9400   -10.5390 hn         1 NT        0.323500
     51 H161       -11.0660    -1.7000   -11.2910 h1         1 NT        0.078700
     52 H162       -10.8810     0.0280   -11.6220 h1         1 NT        0.078700
     53 H171        -8.8780    -0.4470   -12.9890 hc         1 NT        0.085700
     54 H172        -9.0630    -2.1750   -12.6580 hc         1 NT        0.085700
     55 HN9        -12.4710    -1.2540   -14.4870 hn         1 NT        0.440400
     56 HN01       -10.5210    -2.4930   -15.5070 hn         1 NT        0.467800
     57 HN02        -9.1070    -1.7480   -15.1640 hn         1 NT        0.467800
     58 H23         -1.2660     0.8150     1.2410 hn         1 NT        0.482133
     59 H103       -10.3490    -0.9000   -15.8110 hn         1 NT        0.467800
@<TRIPOS>BOND
     1     1     2 2
     2     1     3 1
     3     1     4 1
     4     2    32 1
     5     3    33 1
     6     3    34 1
     7     4     5 1
     8     4    35 1
     9     5     6 1
    10     5    36 1
    11     5    37 1
    12     6     7 2
    13     6     8 1
    14     8     9 1
    15     8    38 1
    16     9    10 1
    17     9    14 2
    18    10    11 2
    19    10    39 1
    20    11    12 1
    21    11    15 1
    22    12    13 1
    23    12    14 1
    24    13    40 1
    25    13    41 1
    26    13    42 1
    27    14    43 1
    28    15    16 2
    29    15    17 1
    30    17    18 1
    31    17    44 1
    32    18    19 1
    33    18    23 2
    34    19    20 2
    35    19    45 1
    36    20    21 1
    37    20    24 1
    38    21    22 1
    39    21    23 1
    40    22    46 1
    41    22    47 1
    42    22    48 1
    43    23    49 1
    44    24    25 2
    45    24    26 1
    46    26    27 1
    47    26    50 1
    48    27    28 1
    49    27    51 1
    50    27    52 1
    51    28    29 1
    52    28    53 1
    53    28    54 1
    54    29    30 2
    55    29    31 1
    56    30    55 1
    57    31    56 1
    58    31    57 1
    59    58     3 1
    60    59    31 1
@<TRIPOS>SUBSTRUCTURE
     1 NT          1 TEMP              0 ****  ****    0 ROOT
