@<TRIPOS>MOLECULE
NT
   59    60     1     0     0
SMALL
bcc


@<TRIPOS>ATOM
      1 C1           0.0000     0.0000     0.0000 c2         1 NT        0.250100
      2 N1           1.3040     0.0000     0.0000 n2         1 NT       -0.627100
      3 N2          -0.6870     0.0000     1.1900 nz         1 NT        0.130400
      4 N3          -0.6860     0.0010    -1.1910 nu         1 NT       -0.391200
      5 C2           0.0460     0.0000    -2.4590 c3         1 NT        0.093800
      6 C3          -0.9330     0.0010    -3.6050 c          1 NT        0.536100
      7 O1          -2.1250     0.0010    -3.3840 o          1 NT       -0.669100
      8 N4          -0.4820     0.0000    -4.8750 ns         1 NT        0.081900
      9 C4          -1.3960     0.0010    -5.9450 cc         1 NT       -0.207400
     10 C5          -2.7950     0.0000    -5.8380 cc         1 NT       -0.133000
     11 C6          -3.3000     0.0000    -7.1210 cd         1 NT       -0.386900
     12 N5          -2.2330    -0.0060    -7.9900 na         1 NT        0.546900
     13 C8          -2.3230    -0.0080    -9.4520 c3         1 NT       -0.036400
     14 C7          -1.0830     0.0000    -7.2670 cd         1 NT       -0.326300
     15 C9          -4.7190    -0.0010    -7.4930 c          1 NT        0.629700
     16 O2          -5.0410    -0.0990    -8.6620 o          1 NT       -0.689100
     17 N6          -5.6640     0.1080    -6.5400 ns         1 NT        0.042900
     18 C10         -7.0230    -0.0100    -6.8820 cc         1 NT       -0.170400
     19 C11         -7.5360    -0.2400    -8.1650 cc         1 NT       -0.138000
     20 C12         -8.9090    -0.2910    -8.0520 cd         1 NT       -0.403900
     21 N7          -9.2260    -0.0880    -6.7280 na         1 NT        0.546900
     22 C14        -10.5790    -0.0620    -6.1690 c3         1 NT       -0.038400
     23 C13         -8.0750     0.0790    -6.0250 cd         1 NT       -0.339300
     24 C15         -9.8600    -0.5130    -9.1450 c          1 NT        0.659700
     25 O3         -11.0570    -0.4400    -8.9350 o          1 NT       -0.664100
     26 N8          -9.4110    -0.7980   -10.3830 ns         1 NT       -0.201900
     27 C16        -10.3540    -0.9100   -11.4990 c3         1 NT        0.053000
     28 C17         -9.5900    -1.2370   -12.7810 c3         1 NT       -0.088700
     29 C18        -10.5600    -1.3520   -13.9290 c2         1 NT        0.109200
     30 N9         -11.8260    -1.1780   -13.7260 n2         1 NT       -0.452100
     31 N10        -10.1020    -1.6420   -15.1870 nz         1 NT        0.198400
     32 HN1          1.8050    -0.0000     0.8660 hn         1 NT        0.351400
     33 HN21        -0.6750    -0.9210     1.5830 hn         1 NT        0.228467
     34 HN22        -1.6340     0.2810     1.0290 hn         1 NT        0.228467
     35 HN3         -1.6870    -0.0210    -1.1910 hn         1 NT        0.324800
     36 H21          0.6680    -0.8850    -2.5160 h1         1 NT        0.055200
     37 H22          0.6690     0.8840    -2.5160 h1         1 NT        0.055200
     38 HN4          0.5010     0.0250    -5.0570 hn         1 NT        0.163500
     39 H5          -3.3710     0.0040    -4.9200 ha         1 NT        0.168000
     40 H81         -2.8320    -0.9060    -9.7810 h1         1 NT        0.036367
     41 H82         -2.8770     0.8620    -9.7820 h1         1 NT        0.036367
     42 H83         -1.3260     0.0160    -9.8750 h1         1 NT        0.036367
     43 H7          -0.0800    -0.0020    -7.6770 h4         1 NT        0.155000
     44 HN6         -5.4010     0.3050    -5.5950 hn         1 NT        0.168500
     45 H11         -6.9600    -0.3610    -9.0750 ha         1 NT        0.167000
     46 H141       -11.1380     0.7530    -6.6120 h1         1 NT        0.037700
     47 H142       -10.5250     0.0790    -5.0960 h1         1 NT        0.037700
     48 H143       -11.0770    -1.0000    -6.3840 h1         1 NT        0.037700
     49 H13         -8.0080     0.2570    -4.9580 h4         1 NT        0.153000
     50 HN8         -8.4320    -0.9360   -10.5400 hn         1 NT        0.192500
     51 H161       -11.0660    -1.7000   -11.2910 h1         1 NT        0.032700
     52 H162       -10.8810     0.0280   -11.6220 h1         1 NT        0.032700
     53 H171        -9.0630    -2.1750   -12.6580 hc         1 NT        0.051200
     54 H172        -8.8780    -0.4470   -12.9890 hc         1 NT        0.051200
     55 HN9        -12.1630    -0.9660   -12.8070 hn         1 NT        0.395400
     56 HN01        -9.5320    -0.8890   -15.5160 hn         1 NT        0.220800
     57 HN02        -9.5610    -2.4830   -15.1600 hn         1 NT        0.220800
     58 H23         -0.2570     0.6440     1.8240 hn         1 NT        0.228467
     59 H103       -10.8800    -1.7710   -15.8040 hn         1 NT        0.220800
@<TRIPOS>BOND
     1     1     2 2   
     2     1     3 1   
     3     1     4 1   
     4     2    32 1   
     5     3    33 1   
     6     3    34 1   
     7     3    58 1   
     8     4     5 1   
     9     4    35 1   
    10     5     6 1   
    11     5    36 1   
    12     5    37 1   
    13     6     7 2   
    14     6     8 1   
    15     8     9 1   
    16     8    38 1   
    17     9    10 1   
    18     9    14 2   
    19    10    11 2   
    20    10    39 1   
    21    11    12 1   
    22    11    15 1   
    23    12    13 1   
    24    12    14 1   
    25    13    40 1   
    26    13    41 1   
    27    13    42 1   
    28    14    43 1   
    29    15    16 2   
    30    15    17 1   
    31    17    18 1   
    32    17    44 1   
    33    18    19 1   
    34    18    23 2   
    35    19    20 2   
    36    19    45 1   
    37    20    21 1   
    38    20    24 1   
    39    21    22 1   
    40    21    23 1   
    41    22    46 1   
    42    22    47 1   
    43    22    48 1   
    44    23    49 1   
    45    24    25 2   
    46    24    26 1   
    47    26    27 1   
    48    26    50 1   
    49    27    28 1   
    50    27    51 1   
    51    27    52 1   
    52    28    29 1   
    53    28    53 1   
    54    28    54 1   
    55    29    30 2   
    56    29    31 1   
    57    30    55 1   
    58    31    56 1   
    59    31    57 1   
    60    31    59 1   
@<TRIPOS>SUBSTRUCTURE
     1 NT          1 TEMP              0 ****  ****    0 ROOT
