@<TRIPOS>MOLECULE
NT2
   36    36     1     0     0
SMALL
bcc


@<TRIPOS>ATOM
      1 S81         0.1880   -1.6970    0.3830 s6        1 NT2      1.691300
      2 O82         1.4700   -0.5730    0.3250 os        1 NT2     -0.612500
      3 C83         2.4090   -0.3030    1.3340 c3        1 NT2      0.202100
      4 C84         1.9190    0.9180    2.1520 c3        1 NT2      0.127100
      5 O85         2.4230    2.1660    1.6950 os        1 NT2     -0.435600
      6 C86         2.1660    0.7470    3.6660 c3        1 NT2      0.181400
      7 O87         1.1900    1.4650    4.3780 os        1 NT2     -0.612500
      8 C8C         3.8060   -0.1730    0.6510 c3        1 NT2      0.215100
      9 O8D         4.7380   -0.7860    1.5100 os        1 NT2     -0.638500
     10 C8I         4.3150    1.2680    0.3820 c3        1 NT2      0.165100
     11 O8J         3.8960    1.7100   -0.8780 os        1 NT2     -0.600500
     12 C8O         3.8270    2.2130    1.4960 c3        1 NT2      0.314900
     13 O8P         4.0260    3.5740    1.2040 oh        1 NT2     -0.632800
     14 S88         1.2780    1.7860    6.0430 s6        1 NT2      1.687300
     15 O8A         2.6100    2.1360    6.3080 o         1 NT2     -0.776867
     16 O8B         0.3620    2.8420    6.2100 o         1 NT2     -0.776867
     17 O89         0.8710    0.6000    6.6780 o         1 NT2     -0.776867
     18 O8Q         0.4510   -2.5220    1.4850 o         1 NT2     -0.771867
     19 O8R        -0.9650   -0.9070    0.5140 o         1 NT2     -0.771867
     20 O8S         0.2520   -2.3580   -0.8550 o         1 NT2     -0.771867
     21 S8E         5.9160   -1.9600    1.1320 s6        1 NT2      1.697300
     22 O8F         5.7160   -2.3170   -0.2060 o         1 NT2     -0.770533
     23 O8G         7.1300   -1.3020    1.3840 o         1 NT2     -0.770533
     24 O8H         5.6690   -2.9960    2.0470 o         1 NT2     -0.770533
     25 S8K         4.7800    2.7000   -1.9500 s6        1 NT2      1.690300
     26 O8L         6.1330    2.5570   -1.6190 o         1 NT2     -0.771533
     27 O8M         4.4500    2.2300   -3.2300 o         1 NT2     -0.771533
     28 O8N         4.2630    3.9810   -1.6820 o         1 NT2     -0.771533
     29 H83         2.4650   -1.1940    2.0300 h1        1 NT2      0.056700
     30 H84         0.8050    1.0310    1.9870 h1        1 NT2      0.091700
     31 H861        3.1860    1.1230    3.9450 h1        1 NT2      0.027700
     32 H862        2.0780   -0.3400    3.9420 h1        1 NT2      0.027700
     33 H8C         3.7600   -0.7180   -0.3350 h1        1 NT2      0.077700
     34 H8I         5.4450    1.2540    0.4130 h1        1 NT2      0.052700
     35 H8O         4.3860    2.0050    2.4500 h2        1 NT2      0.062700
     36 H8P         3.5750    3.7580    0.3640 ho        1 NT2      0.436000
@<TRIPOS>BOND
     1    1    2 1   
     2    1   18 1   
     3    1   19 1   
     4    1   20 1   
     5    2    3 1   
     6    3    4 1   
     7    3    8 1   
     8    3   29 1   
     9    4    5 1   
    10    4    6 1   
    11    4   30 1   
    12    5   12 1   
    13    6    7 1   
    14    6   31 1   
    15    6   32 1   
    16    7   14 1   
    17    8    9 1   
    18    8   10 1   
    19    8   33 1   
    20    9   21 1   
    21   10   11 1   
    22   10   12 1   
    23   10   34 1   
    24   11   25 1   
    25   12   13 1   
    26   12   35 1   
    27   13   36 1   
    28   14   15 1   
    29   14   16 1   
    30   14   17 1   
    31   21   22 1   
    32   21   23 1   
    33   21   24 1   
    34   25   26 1   
    35   25   27 1   
    36   25   28 1   
@<TRIPOS>SUBSTRUCTURE
     1 NT2         1 TEMP              0 ****  ****    0 ROOT
