@<TRIPOS>MOLECULE
molecule
   36    36     1     0     0
SMALL
bcc


@<TRIPOS>ATOM
      1 S81          0.0000     0.0000     0.0000 s6         1 NT2       1.387300
      2 O82          1.6320     0.0000     0.0000 os         1 NT2      -0.509500
      3 C83          2.3400     0.0000     1.2430 c3         1 NT2       0.193100
      4 C84          1.8870     1.2240     2.0570 c3         1 NT2       0.102100
      5 O85          2.4160     2.4430     1.5190 os         1 NT2      -0.432600
      6 C86          2.1790     1.1100     3.5520 c3         1 NT2       0.160400
      7 O87          1.4890    -0.0180     4.0600 os         1 NT2      -0.536500
      8 C8C          3.8400    -0.0000     0.9220 c3         1 NT2       0.142100
      9 O8D          4.5870    -0.3780     2.0750 os         1 NT2      -0.553500
     10 C8I          4.3260     1.3760     0.4600 c3         1 NT2       0.132100
     11 O8J          3.8530     1.6290    -0.8630 os         1 NT2      -0.519500
     12 C8O          3.8360     2.4800     1.3990 c3         1 NT2       0.354900
     13 O8P          4.2580     3.7390     0.8750 oh         1 NT2      -0.574800
     14 S88          1.6070    -0.4020     5.6470 s6         1 NT2       1.374300
     15 O8A          3.0080    -0.6530     5.9370 o          1 NT2      -0.693867
     16 O8B          0.8660     0.5750     6.4220 o          1 NT2      -0.693867
     17 O89          0.8210    -1.8280     5.7540 o          1 NT2      -0.693867
     18 O8Q         -0.4350    -1.1980     0.6940 o          1 NT2      -0.698200
     19 O8R         -0.4720     1.3030     0.4310 o          1 NT2      -0.698200
     20 O8S         -0.3850    -0.1770    -1.5750 o          1 NT2      -0.698200
     21 S8E          6.2130    -0.4540     1.9910 s6         1 NT2       1.382300
     22 O8F          6.5460    -1.4330     0.9720 o          1 NT2      -0.692533
     23 O8G          6.7480     0.8920     1.9100 o          1 NT2      -0.692533
     24 O8H          6.6440    -1.0800     3.4330 o          1 NT2      -0.692533
     25 S8K          4.2800     0.6270    -2.0810 s6         1 NT2       1.379300
     26 O8L          5.7280     0.6520    -2.1780 o          1 NT2      -0.688867
     27 O8M          3.5820    -0.6350    -1.9210 o          1 NT2      -0.688867
     28 O8N          3.6860     1.3630    -3.4100 o          1 NT2      -0.688867
     29 H83          2.0980    -0.9000     1.7950 h1         1 NT2       0.089700
     30 H84          0.8110     1.2820     1.9510 h1         1 NT2       0.114700
     31 H861         1.8380     2.0040     4.0590 h1         1 NT2       0.028200
     32 H862         3.2440     0.9860     3.7080 h1         1 NT2       0.028200
     33 H8C          4.0250    -0.7170     0.1300 h1         1 NT2       0.110700
     34 H8I          5.4090     1.3790     0.4560 h1         1 NT2       0.081700
     35 H8O          4.2770     2.3330     2.3780 h2         1 NT2       0.027700
     36 H8P          4.2010     4.3950     1.5500 ho         1 NT2       0.360000
@<TRIPOS>BOND
     1     1     2 1
     2     1    18 1
     3     1    19 1
     4     1    20 1
     5     2     3 1
     6     3     4 1
     7     3     8 1
     8     3    29 1
     9     4     5 1
    10     4     6 1
    11     4    30 1
    12     5    12 1
    13     6     7 1
    14     6    31 1
    15     6    32 1
    16     7    14 1
    17     8     9 1
    18     8    10 1
    19     8    33 1
    20     9    21 1
    21    10    11 1
    22    10    12 1
    23    10    34 1
    24    11    25 1
    25    12    13 1
    26    12    35 1
    27    13    36 1
    28    14    15 1
    29    14    16 1
    30    14    17 1
    31    21    22 1
    32    21    23 1
    33    21    24 1
    34    25    26 1
    35    25    27 1
    36    25    28 1
@<TRIPOS>SUBSTRUCTURE
     1 NT2         1 TEMP              0 ****  ****    0 ROOT
