@<TRIPOS>MOLECULE
molecule
   69    72     1     0     0
SMALL
bcc


@<TRIPOS>ATOM
      1 N1           0.0000     0.0000     0.0000 ns         1 NT4      -0.574900
      2 N3          -8.7350     5.4110     5.0560 n2         1 NT4      -0.748600
      3 C4          -4.2380     2.3590     0.2190 ca         1 NT4       0.093100
      4 C5          -2.8530     2.3640     0.2190 ca         1 NT4      -0.082500
      5 C6          -2.1530     1.1620     0.1080 ca         1 NT4      -0.122600
      6 C7          -0.6750     1.1620     0.1080 c          1 NT4       0.674700
      7 C8           1.4640     0.0000     0.0000 c3         1 NT4       0.173700
      8 C10         -5.6380     3.7460     1.4600 ca         1 NT4       0.178600
      9 C13         -6.6780    -2.0810    -3.7580 ca         1 NT4      -0.218900
     10 C15         -6.3010    -2.6200    -1.4480 ca         1 NT4      -0.169500
     11 C17         -7.1850     5.0870     2.7070 ca         1 NT4      -0.044750
     12 C20         -5.5610     2.8420     2.5130 ca         1 NT4      -0.169500
     13 C21          1.9750     0.0000     1.4420 c3         1 NT4      -0.171400
     14 C22          3.5050     0.0000     1.4420 c3         1 NT4      -0.077900
     15 C24          3.5050    -1.2480    -0.7220 c3         1 NT4      -0.077900
     16 O1          -0.0670     2.2100     0.2050 o          1 NT4      -0.582100
     17 C23          4.0150    -1.2490     0.7200 c3         1 NT4       0.093500
     18 N2           5.4840    -1.2490     0.7200 nz         1 NT4      -0.813600
     19 C25          1.9750    -1.2490    -0.7220 c3         1 NT4      -0.171400
     20 C16         -6.4510     4.8670     1.5610 ca         1 NT4      -0.169500
     21 C18         -7.1100     4.1830     3.7660 ca         1 NT4      -0.218900
     22 N4          -7.7380     3.5830     6.0850 nz         1 NT4      -0.812600
     23 C19         -6.2910     3.0560     3.6620 ca         1 NT4      -0.044750
     24 C3          -4.9300     1.1610     0.1030 ca         1 NT4      -0.154000
     25 C2          -4.2380    -0.0360    -0.0140 ca         1 NT4       0.093100
     26 C1          -2.8520    -0.0410    -0.0030 ca         1 NT4      -0.082500
     27 O2          -4.9200    -1.2050    -0.1260 os         1 NT4      -0.223200
     28 C9          -5.4980    -1.4930    -1.3210 ca         1 NT4       0.178600
     29 C11         -5.2860    -0.6600    -2.4130 ca         1 NT4      -0.169500
     30 C12         -5.8710    -0.9490    -3.6260 ca         1 NT4      -0.044750
     31 C14         -6.8890    -2.9150    -2.6590 ca         1 NT4      -0.044750
     32 H1          -0.4880    -0.8660     0.1140 hn         1 NT4       0.327500
     33 H2          -9.3490     5.7180     5.7850 hn         1 NT4       0.493900
     34 H3          -2.3280     3.2950     0.3930 ha         1 NT4       0.171000
     35 H4           1.8350     0.8770    -0.5160 h1         1 NT4       0.075700
     36 H5          -6.4550    -3.2780    -0.6020 ha         1 NT4       0.170750
     37 H6          -7.8340     5.9500     2.7910 ha         1 NT4       0.148500
     38 H7          -4.8970     1.9890     2.4320 ha         1 NT4       0.170750
     39 H8           1.3940     0.3670     2.2800 hc         1 NT4       0.098700
     40 H9           2.0860     0.8950     0.8420 hc         1 NT4       0.098700
     41 H10          3.8420     0.8920     0.9270 hc         1 NT4       0.066450
     42 H11          3.8580     0.0220     2.4660 hc         1 NT4       0.066450
     43 H12          3.9840    -0.4120    -1.2180 hc         1 NT4       0.066450
     44 H13          3.8490    -2.1710    -1.1730 hc         1 NT4       0.066450
     45 H14          3.6570    -2.1380     1.2250 hx         1 NT4       0.124700
     46 H15          5.8260    -0.7150    -0.0550 hn         1 NT4       0.458133
     47 H16          5.8060    -2.1950     0.6670 hn         1 NT4       0.458133
     48 H18          1.6220    -1.2390    -1.7460 hc         1 NT4       0.098700
     49 H19          1.5990    -2.1310    -0.2190 hc         1 NT4       0.098700
     50 H20         -6.5090     5.5690     0.7380 ha         1 NT4       0.170750
     51 H21         -8.5430     2.9940     6.1680 hn         1 NT4       0.465633
     52 H22         -7.5850     4.0800     6.9400 hn         1 NT4       0.465633
     53 H23         -6.2200     2.3590     4.4870 ha         1 NT4       0.148500
     54 H24         -6.0130     1.1850     0.1050 ha         1 NT4       0.166000
     55 H25         -2.3130    -0.9770    -0.0890 ha         1 NT4       0.171000
     56 H26         -4.6760     0.2290    -2.3030 ha         1 NT4       0.170750
     57 H27         -5.7050    -0.3070    -4.4820 ha         1 NT4       0.148500
     58 H28         -6.1170    -1.9240    -6.5220 hn         1 NT4       0.465633
     59 H29         -7.6950    -1.7120    -6.8940 hn         1 NT4       0.465633
     60 H30         -8.6640    -3.7840    -5.9140 hn         1 NT4       0.493900
     61 H31         -7.5040    -3.8000    -2.7610 ha         1 NT4       0.148500
     62 C27         -7.3030    -2.3970    -5.0610 ce         1 NT4       0.579800
     63 C26         -7.8970     4.4150     4.9970 ce         1 NT4       0.579800
     64 N5          -7.0080    -1.6350    -6.1690 nz         1 NT4      -0.812600
     65 N6          -8.1320    -3.3980    -5.1590 n2         1 NT4      -0.748600
     66 H231         5.8230    -0.8040     1.5500 hn         1 NT4       0.458133
     67 H43         -6.9200     3.0160     5.9800 hn         1 NT4       0.465633
     68 H53         -6.9130    -0.7070    -5.8060 hn         1 NT4       0.465633
     69 O3          -4.9210     3.5290     0.3290 os         1 NT4      -0.223200
@<TRIPOS>BOND
     1    65    62 2
     2    62     9 1
     3    62    64 1
     4    30     9 ar
     5    30    29 ar
     6     9    31 ar
     7    29    28 ar
     8    31    10 ar
     9    28    27 1
    10    28    10 ar
    11    27    25 1
    12    24    25 ar
    13    24     3 ar
    14    69     3 1
    15    69     8 1
    16    25    26 ar
    17    12     8 ar
    18    12    23 ar
    19     3     4 ar
    20     8    20 ar
    21    23    21 ar
    22    26     5 ar
    23     4     5 ar
    24    20    11 ar
    25    21    11 ar
    26    21    63 1
    27     5     6 1
    28     2    63 2
    29    63    22 1
    30     6     1 1
    31     6    16 2
    32     1     7 1
    33    13     7 1
    34    13    14 1
    35     7    19 1
    36    14    17 1
    37    19    15 1
    38    17    15 1
    39    17    18 1
    40     1    32 1
    41     2    33 1
    42     4    34 1
    43     7    35 1
    44    10    36 1
    45    11    37 1
    46    12    38 1
    47    13    39 1
    48    13    40 1
    49    14    41 1
    50    14    42 1
    51    15    43 1
    52    15    44 1
    53    17    45 1
    54    18    46 1
    55    18    47 1
    56    19    48 1
    57    19    49 1
    58    20    50 1
    59    22    51 1
    60    22    52 1
    61    23    53 1
    62    24    54 1
    63    26    55 1
    64    29    56 1
    65    30    57 1
    66    64    58 1
    67    64    59 1
    68    65    60 1
    69    31    61 1
    70    66    18 1
    71    67    22 1
    72    68    64 1
@<TRIPOS>SUBSTRUCTURE
     1 NT4         1 TEMP              0 ****  ****    0 ROOT
