@<TRIPOS>MOLECULE
NT4
   69    72     1     0     0
SMALL
bcc


@<TRIPOS>ATOM
      1 N1           0.0000     0.0000     0.0000 ns         1 NT4      -0.191900
      2 N3          -8.7350     5.4110     5.0560 n2         1 NT4      -0.471100
      3 C4          -4.2380     2.3590     0.2190 ca         1 NT4       0.102100
      4 C5          -2.8530     2.3640     0.2190 ca         1 NT4      -0.062500
      5 C6          -2.1530     1.1620     0.1080 ca         1 NT4      -0.124600
      6 C7          -0.6750     1.1620     0.1080 c          1 NT4       0.595700
      7 C8           1.4640     0.0000     0.0000 c3         1 NT4       0.090700
      8 C10         -5.6380     3.7460     1.4600 ca         1 NT4       0.188100
      9 C13         -6.6780    -2.0810    -3.7580 ca         1 NT4      -0.259900
     10 C15         -6.3010    -2.6200    -1.4480 ca         1 NT4      -0.142000
     11 C17         -7.1850     5.0870     2.7070 ca         1 NT4      -0.026000
     12 C20         -5.5610     2.8420     2.5130 ca         1 NT4      -0.142000
     13 C21          1.9750     0.0000     1.4420 c3         1 NT4      -0.138400
     14 C22          3.5050     0.0000     1.4420 c3         1 NT4       0.002600
     15 C24          3.5050    -1.2480    -0.7220 c3         1 NT4       0.002600
     16 O1          -0.0670     2.2100     0.2050 o          1 NT4      -0.620100
     17 C23          4.0150    -1.2490     0.7200 c3         1 NT4      -0.076500
     18 N2           5.4840    -1.2490     0.7200 nz         1 NT4       0.072400
     19 C25          1.9750    -1.2490    -0.7220 c3         1 NT4      -0.138400
     20 C16         -6.4510     4.8670     1.5610 ca         1 NT4      -0.142000
     21 C18         -7.1100     4.1830     3.7660 ca         1 NT4      -0.259900
     22 N4          -7.7480     3.5740     6.0800 nz         1 NT4       0.192400
     23 C19         -6.2910     3.0560     3.6620 ca         1 NT4      -0.026000
     24 C3          -4.9300     1.1610     0.1030 ca         1 NT4      -0.143000
     25 C2          -4.2380    -0.0360    -0.0140 ca         1 NT4       0.102100
     26 C1          -2.8520    -0.0410    -0.0030 ca         1 NT4      -0.062500
     27 O2          -4.9200    -1.2050    -0.1260 os         1 NT4      -0.199200
     28 C9          -5.4980    -1.4930    -1.3210 ca         1 NT4       0.188100
     29 C11         -5.2860    -0.6600    -2.4130 ca         1 NT4      -0.142000
     30 C12         -5.8710    -0.9490    -3.6260 ca         1 NT4      -0.026000
     31 C14         -6.8890    -2.9150    -2.6590 ca         1 NT4      -0.026000
     32 H1          -0.4810    -0.8410     0.2500 hn         1 NT4       0.187500
     33 H2          -8.9380     6.1180     4.3770 hn         1 NT4       0.388900
     34 H3          -2.3230     3.2610     0.5140 ha         1 NT4       0.138000
     35 H4           1.8300     0.8830    -0.5100 h1         1 NT4       0.053700
     36 H5          -6.4680    -3.2670    -0.5960 ha         1 NT4       0.141000
     37 H6          -7.8040     5.9700     2.8100 ha         1 NT4       0.103500
     38 H7          -4.9020     1.9820     2.4740 ha         1 NT4       0.141000
     39 H8           1.3900     0.3980     2.2620 hc         1 NT4       0.069200
     40 H9           2.1120     0.8940     0.8460 hc         1 NT4       0.069200
     41 H10          3.8070     0.0430     2.4810 hc         1 NT4       0.036950
     42 H11          3.8560     0.8780     0.9120 hc         1 NT4       0.036950
     43 H12          3.8580    -0.3570    -1.2260 hc         1 NT4       0.036950
     44 H13          3.8620    -2.1280    -1.2440 hc         1 NT4       0.036950
     45 H14          3.6820    -2.1250     1.2630 hx         1 NT4       0.098700
     46 H15          5.8020    -1.3050     1.6670 hn         1 NT4       0.227800
     47 H16          5.8030    -0.3800     0.3380 hn         1 NT4       0.227800
     48 H18          1.6560    -1.1370    -1.7510 hc         1 NT4       0.069200
     49 H19          1.5660    -2.1360    -0.2540 hc         1 NT4       0.069200
     50 H20         -6.5090     5.5690     0.7380 ha         1 NT4       0.141000
     51 H21         -8.3670     3.8700     6.8090 hn         1 NT4       0.219800
     52 H22         -6.8060     3.5880     6.4170 hn         1 NT4       0.219800
     53 H23         -6.2260     2.3500     4.4810 ha         1 NT4       0.103500
     54 H24         -6.0130     1.1630     0.1220 ha         1 NT4       0.135000
     55 H25         -2.3110    -0.9750    -0.1000 ha         1 NT4       0.138000
     56 H26         -4.6520     0.2120    -2.3020 ha         1 NT4       0.141000
     57 H27         -5.7150    -0.2930    -4.4730 ha         1 NT4       0.103500
     58 H28         -7.7780    -1.6330    -6.8100 hn         1 NT4       0.219800
     59 H29         -6.7130    -0.6920    -6.0060 hn         1 NT4       0.219800
     60 H30         -8.3430    -3.9780    -4.3720 hn         1 NT4       0.388900
     61 H31         -7.5140    -3.7940    -2.7580 ha         1 NT4       0.103500
     62 C27         -7.3030    -2.3970    -5.0610 ce         1 NT4       0.213800
     63 C26         -7.8970     4.4150     4.9970 ce         1 NT4       0.213800
     64 N5          -7.0080    -1.6350    -6.1690 nz         1 NT4       0.192400
     65 N6          -8.1320    -3.3980    -5.1590 n2         1 NT4      -0.471100
     66 H231         5.8620    -2.0050     0.1840 hn         1 NT4       0.227800
     67 H43         -7.9760     2.6360     5.8190 hn         1 NT4       0.219800
     68 H53         -6.1990    -1.9970    -6.6330 hn         1 NT4       0.219800
     69 O3          -4.9210     3.5290     0.3290 os         1 NT4      -0.199200
@<TRIPOS>BOND
     1     1     6 1   
     2     1     7 1   
     3     1    32 1   
     4     2    33 1   
     5     2    63 2   
     6     3     4 ar  
     7     3    24 ar  
     8     3    69 1   
     9     4     5 ar  
    10     4    34 1   
    11     5     6 1   
    12     5    26 ar  
    13     6    16 2   
    14     7    13 1   
    15     7    19 1   
    16     7    35 1   
    17     8    12 ar  
    18     8    20 ar  
    19     8    69 1   
    20     9    30 ar  
    21     9    31 ar  
    22     9    62 1   
    23    10    28 ar  
    24    10    31 ar  
    25    10    36 1   
    26    11    20 ar  
    27    11    21 ar  
    28    11    37 1   
    29    12    23 ar  
    30    12    38 1   
    31    13    14 1   
    32    13    39 1   
    33    13    40 1   
    34    14    17 1   
    35    14    41 1   
    36    14    42 1   
    37    15    17 1   
    38    15    19 1   
    39    15    43 1   
    40    15    44 1   
    41    17    18 1   
    42    17    45 1   
    43    18    46 1   
    44    18    47 1   
    45    18    66 1   
    46    19    48 1   
    47    19    49 1   
    48    20    50 1   
    49    21    23 ar  
    50    21    63 1   
    51    22    51 1   
    52    22    52 1   
    53    22    63 1   
    54    22    67 1   
    55    23    53 1   
    56    24    25 ar  
    57    24    54 1   
    58    25    26 ar  
    59    25    27 1   
    60    26    55 1   
    61    27    28 1   
    62    28    29 ar  
    63    29    30 ar  
    64    29    56 1   
    65    30    57 1   
    66    31    61 1   
    67    58    64 1   
    68    59    64 1   
    69    60    65 1   
    70    62    64 1   
    71    62    65 2   
    72    64    68 1   
@<TRIPOS>SUBSTRUCTURE
     1 NT4         1 TEMP              0 ****  ****    0 ROOT
