@<TRIPOS>MOLECULE
molecule
   41    40     1     0     0
SMALL
bcc


@<TRIPOS>ATOM
      1 N01          0.0000     0.0000     0.0000 nz         1 NT8      -0.722600
      2 C02          1.4690     0.0000     0.0000 c3         1 NT8      -0.140200
      3 C03          1.9790     0.0000     1.4440 c3         1 NT8      -0.032400
      4 C04          1.4690     1.2490     2.1650 c3         1 NT8      -0.138400
      5 C05          1.9780     1.2490     3.6070 c3         1 NT8      -0.072400
      6 C06          1.4680     2.4980     4.3280 c3         1 NT8      -0.079400
      7 C07          1.9780     2.4970     5.7710 c3         1 NT8      -0.085400
      8 C08          1.4680     3.7470     6.4930 c3         1 NT8      -0.083400
      9 C09          1.9770     3.7460     7.9350 c3         1 NT8      -0.082400
     10 C10          1.4660     4.9950     8.6560 c3         1 NT8      -0.085400
     11 C11          1.9760     4.9950    10.0990 c3         1 NT8      -0.092100
     12 P12          2.0770    -1.4880    -0.8590 p5         1 NT8       1.026700
     13 O13          1.4350    -2.7990    -0.1810 o          1 NT8      -0.892000
     14 O14          3.6810    -1.5570    -0.7450 o          1 NT8      -0.892000
     15 O15          1.6860    -1.4290    -2.2850 o          1 NT8      -0.892000
     16 P16          2.0780     1.4880    -0.8580 p5         1 NT8       1.026700
     17 O17          3.6880     1.4880    -0.8580 o          1 NT8      -0.892000
     18 O18          1.5410     2.8020    -0.0990 o          1 NT8      -0.892000
     19 O19          1.5850     1.4890    -2.2540 o          1 NT8      -0.892000
     20 H011        -0.3340     0.9280     0.1710 hn         1 NT8       0.397467
     21 H012        -0.3340    -0.3160    -0.8890 hn         1 NT8       0.397467
     22 H032         3.0620     0.0000     1.4440 hc         1 NT8       0.053700
     23 H031         1.6180    -0.8850     1.9540 hc         1 NT8       0.053700
     24 H041         1.8300     2.1340     1.6540 hc         1 NT8       0.069700
     25 H042         0.3850     1.2490     2.1640 hc         1 NT8       0.069700
     26 H051         1.6160     0.3640     4.1170 hc         1 NT8       0.021200
     27 H052         3.0610     1.2480     3.6080 hc         1 NT8       0.021200
     28 H061         0.3840     2.4980     4.3280 hc         1 NT8       0.040700
     29 H062         1.8290     3.3820     3.8180 hc         1 NT8       0.040700
     30 H071         1.6170     1.6130     6.2810 hc         1 NT8       0.031200
     31 H072         3.0610     2.4970     5.7710 hc         1 NT8       0.031200
     32 H081         0.3840     3.7470     6.4920 hc         1 NT8       0.037700
     33 H082         1.8290     4.6310     5.9820 hc         1 NT8       0.037700
     34 H091         1.6150     2.8620     8.4460 hc         1 NT8       0.035700
     35 H092         3.0600     3.7460     7.9360 hc         1 NT8       0.035700
     36 H101         0.3830     4.9960     8.6560 hc         1 NT8       0.036700
     37 H102         1.8280     5.8800     8.1460 hc         1 NT8       0.036700
     38 H112         3.0590     4.9880    10.1000 hc         1 NT8       0.022700
     39 H111         1.6200     5.8830    10.6080 hc         1 NT8       0.022700
     40 H113         1.6090     4.1140    10.6110 hc         1 NT8       0.022700
     41 H013        -0.3340    -0.6180     0.7130 hn         1 NT8       0.397467
@<TRIPOS>BOND
     1    11    10 1
     2    10     9 1
     3     9     8 1
     4     8     7 1
     5     7     6 1
     6     6     5 1
     7     5     4 1
     8     4     3 1
     9     3     2 1
    10    13    12 1
    11    15    12 1
    12     2    12 1
    13     2     1 1
    14     2    16 1
    15    12    14 1
    16    19    16 1
    17    16    18 1
    18    16    17 1
    19     1    20 1
    20     1    21 1
    21     3    22 1
    22     3    23 1
    23     4    24 1
    24     4    25 1
    25     5    26 1
    26     5    27 1
    27     6    28 1
    28     6    29 1
    29     7    30 1
    30     7    31 1
    31     8    32 1
    32     8    33 1
    33     9    34 1
    34     9    35 1
    35    10    36 1
    36    10    37 1
    37    11    38 1
    38    11    39 1
    39    11    40 1
    40    41     1 1
@<TRIPOS>SUBSTRUCTURE
     1 NT8         1 TEMP              0 ****  ****    0 ROOT
