@<TRIPOS>MOLECULE
NT8
   41    40     1     0     0
SMALL
bcc


@<TRIPOS>ATOM
      1 N01          0.0000     0.0000     0.0000 nz         1 NT8       0.154400
      2 C02          1.4690     0.0000     0.0000 c3         1 NT8      -0.065200
      3 C03          1.9790     0.0000     1.4440 c3         1 NT8       0.059600
      4 C04          1.4690     1.2490     2.1650 c3         1 NT8      -0.154400
      5 C05          1.9780     1.2490     3.6070 c3         1 NT8      -0.015400
      6 C06          1.4680     2.4980     4.3280 c3         1 NT8      -0.031400
      7 C07          1.9780     2.4970     5.7710 c3         1 NT8      -0.034400
      8 C08          1.4680     3.7470     6.4930 c3         1 NT8      -0.032400
      9 C09          1.9770     3.7460     7.9350 c3         1 NT8      -0.031400
     10 C10          1.4660     4.9950     8.6560 c3         1 NT8      -0.031400
     11 C11          1.9760     4.9950    10.0990 c3         1 NT8       0.004900
     12 P12          2.0770    -1.4880    -0.8590 p5         1 NT8       0.459200
     13 O13          1.4350    -2.7990    -0.1810 o          1 NT8      -0.732833
     14 O14          3.6810    -1.5570    -0.7450 o          1 NT8      -0.732833
     15 O15          1.6860    -1.4290    -2.2850 o          1 NT8      -0.732833
     16 P16          2.0780     1.4880    -0.8580 p5         1 NT8       0.459200
     17 O17          3.6880     1.4880    -0.8580 o          1 NT8      -0.732833
     18 O18          1.5410     2.8020    -0.0990 o          1 NT8      -0.732833
     19 O19          1.5850     1.4890    -2.2540 o          1 NT8      -0.732833
     20 H011        -0.3340     0.9280     0.1710 hn         1 NT8       0.149800
     21 H012        -0.3340    -0.3160    -0.8890 hn         1 NT8       0.149800
     22 H032         3.0620     0.0000     1.4440 hc         1 NT8       0.014700
     23 H031         1.6180    -0.8850     1.9540 hc         1 NT8       0.014700
     24 H041         1.8300     2.1340     1.6540 hc         1 NT8       0.057200
     25 H042         0.3850     1.2490     2.1640 hc         1 NT8       0.057200
     26 H051         1.6160     0.3640     4.1170 hc         1 NT8      -0.006800
     27 H052         3.0610     1.2480     3.6080 hc         1 NT8      -0.006800
     28 H061         0.3840     2.4980     4.3280 hc         1 NT8       0.014200
     29 H062         1.8290     3.3820     3.8180 hc         1 NT8       0.014200
     30 H071         1.6170     1.6130     6.2810 hc         1 NT8       0.005700
     31 H072         3.0610     2.4970     5.7710 hc         1 NT8       0.005700
     32 H081         0.3840     3.7470     6.4920 hc         1 NT8       0.011200
     33 H082         1.8290     4.6310     5.9820 hc         1 NT8       0.011200
     34 H091         1.6150     2.8620     8.4460 hc         1 NT8       0.009700
     35 H092         3.0600     3.7460     7.9360 hc         1 NT8       0.009700
     36 H101         0.3830     4.9960     8.6560 hc         1 NT8       0.009200
     37 H102         1.8280     5.8800     8.1460 hc         1 NT8       0.009200
     38 H112         3.0590     4.9880    10.1000 hc         1 NT8      -0.008633
     39 H111         1.6200     5.8830    10.6080 hc         1 NT8      -0.008633
     40 H113         1.6090     4.1140    10.6110 hc         1 NT8      -0.008633
     41 H013        -0.3340    -0.6180     0.7130 hn         1 NT8       0.149800
@<TRIPOS>BOND
     1     1     2 1   
     2     1    20 1   
     3     1    21 1   
     4     1    41 1   
     5     2     3 1   
     6     2    12 1   
     7     2    16 1   
     8     3     4 1   
     9     3    22 1   
    10     3    23 1   
    11     4     5 1   
    12     4    24 1   
    13     4    25 1   
    14     5     6 1   
    15     5    26 1   
    16     5    27 1   
    17     6     7 1   
    18     6    28 1   
    19     6    29 1   
    20     7     8 1   
    21     7    30 1   
    22     7    31 1   
    23     8     9 1   
    24     8    32 1   
    25     8    33 1   
    26     9    10 1   
    27     9    34 1   
    28     9    35 1   
    29    10    11 1   
    30    10    36 1   
    31    10    37 1   
    32    11    38 1   
    33    11    39 1   
    34    11    40 1   
    35    12    13 1   
    36    12    14 1   
    37    12    15 1   
    38    16    17 1   
    39    16    18 1   
    40    16    19 1   
@<TRIPOS>SUBSTRUCTURE
     1 NT8         1 TEMP              0 ****  ****    0 ROOT
