@<TRIPOS>MOLECULE
NTA
   19    18     1     0     0
SMALL
bcc


@<TRIPOS>ATOM
      1 N1           0.0000     0.0000     0.0000 n3         1 NTA      -0.407600
      2 C6           1.4690     0.0000     0.0000 c3         1 NTA       0.010133
      3 C10         -0.4210     0.0000     1.4080 c3         1 NTA       0.010133
      4 C2          -0.4230     1.2870    -0.5660 c3         1 NTA       0.010133
      5 C7           1.9700     0.0020    -1.4200 c          1 NTA       0.992600
      6 O8           3.2900     0.0020    -1.6670 o          1 NTA      -0.936967
      7 O9           1.1850     0.0020    -2.3380 o          1 NTA      -0.936967
      8 C3          -1.8630     1.1970    -0.9990 c          1 NTA       0.992600
      9 C11         -0.2290    -1.3770     1.9890 c          1 NTA       0.992600
     10 O12         -0.5990    -1.6290     3.2550 o          1 NTA      -0.936967
     11 O13          0.2550    -2.2540     1.3150 o          1 NTA      -0.936967
     12 O4          -2.5110     2.2980    -1.4090 o          1 NTA      -0.936967
     13 O5          -2.4330     0.1320    -0.9800 o          1 NTA      -0.936967
     14 H61          1.8300     0.8840     0.5120 h1         1 NTA       0.003200
     15 H62          1.8300    -0.8850     0.5090 h1         1 NTA       0.003200
     16 H101        -1.4660     0.2770     1.4720 h1         1 NTA       0.003200
     17 H102         0.1760     0.7130     1.9630 h1         1 NTA       0.003200
     18 H21         -0.3190     2.0620     0.1830 h1         1 NTA       0.003200
     19 H22          0.1970     1.5260    -1.4210 h1         1 NTA       0.003200
@<TRIPOS>BOND
     1     1     2 1   
     2     1     3 1   
     3     1     4 1   
     4     2     5 1   
     5     2    14 1   
     6     2    15 1   
     7     3     9 1   
     8     3    16 1   
     9     3    17 1   
    10     4     8 1   
    11     4    18 1   
    12     4    19 1   
    13     5     6 1   
    14     5     7 1   
    15     8    12 1   
    16     8    13 1   
    17     9    10 1   
    18     9    11 1   
@<TRIPOS>SUBSTRUCTURE
     1 NTA         1 TEMP              0 ****  ****    0 ROOT
