@<TRIPOS>MOLECULE
NTB
   17    16     1     0     0
SMALL
bcc


@<TRIPOS>ATOM
      1 N            0.0000     0.0000     0.0000 nz         1 NTB       0.067400
      2 C            1.4680     0.0000     0.0000 c3         1 NTB      -0.102800
      3 C1           1.9780     0.0000     1.4420 c3         1 NTB       0.000567
      4 C2           1.9790     1.2500    -0.7220 c3         1 NTB       0.000567
      5 C3           1.9780    -1.2500    -0.7210 c3         1 NTB       0.000567
      6 HN1         -0.3340    -0.0000    -0.9440 hn         1 NTB       0.227133
      7 HN2         -0.3340     0.8170     0.4720 hn         1 NTB       0.227133
      8 H11          1.6170    -0.8840     1.9530 hc         1 NTB       0.039033
      9 H12          3.0620    -0.0000     1.4420 hc         1 NTB       0.039033
     10 H13          1.6180     0.8850     1.9530 hc         1 NTB       0.039033
     11 H21          1.6180     2.1340    -0.2110 hc         1 NTB       0.039033
     12 H22          3.0620     1.2490    -0.7220 hc         1 NTB       0.039033
     13 H23          1.6180     1.2500    -1.7430 hc         1 NTB       0.039033
     14 H31          1.6170    -1.2500    -1.7430 hc         1 NTB       0.039033
     15 H32          3.0620    -1.2500    -0.7210 hc         1 NTB       0.039033
     16 H33          1.6170    -2.1340    -0.2110 hc         1 NTB       0.039033
     17 HN3         -0.3340    -0.8030     0.4950 hn         1 NTB       0.227133
@<TRIPOS>BOND
     1     1     2 1   
     2     1     6 1   
     3     1     7 1   
     4     1    17 1   
     5     2     3 1   
     6     2     4 1   
     7     2     5 1   
     8     3     8 1   
     9     3     9 1   
    10     3    10 1   
    11     4    11 1   
    12     4    12 1   
    13     4    13 1   
    14     5    14 1   
    15     5    15 1   
    16     5    16 1   
@<TRIPOS>SUBSTRUCTURE
     1 NTB         1 TEMP              0 ****  ****    0 ROOT
