@<TRIPOS>MOLECULE
NTC
   18    17     1     0     0
SMALL
bcc


@<TRIPOS>ATOM
      1 N1           0.0000     0.0000     0.0000 no         1 NTC       0.983300
      2 O1           1.2180     0.0000     0.0000 o          1 NTC      -0.476000
      3 O2          -0.6090     0.0000     1.0560 o          1 NTC      -0.476000
      4 C2          -0.7330    -0.0010    -1.2690 c3         1 NTC      -0.317700
      5 C3          -0.1050    -1.0210    -2.2190 c3         1 NTC       0.085800
      6 O7           1.2600    -0.6730    -2.4580 oh         1 NTC      -0.515800
      7 C4          -0.8710    -1.0220    -3.5440 c3         1 NTC      -0.145400
      8 C5          -0.3310    -2.1120    -4.4360 c          1 NTC       0.980600
      9 O3           0.5730    -2.8150    -4.0510 o          1 NTC      -0.896800
     10 O4          -0.8550    -2.3000    -5.6570 o          1 NTC      -0.896800
     11 C6          -0.1720    -2.3940    -1.6010 c          1 NTC       0.995600
     12 O5           0.8450    -3.0100    -1.3850 o          1 NTC      -0.879800
     13 O6          -1.3610    -2.9310    -1.2870 o          1 NTC      -0.879800
     14 H21         -1.7680    -0.2660    -1.0880 h1         1 NTC       0.054700
     15 H22         -0.6850     0.9850    -1.7150 h1         1 NTC       0.054700
     16 HO7          1.2980     0.1230    -2.9610 ho         1 NTC       0.331000
     17 H41         -1.9220    -1.2000    -3.3530 hc         1 NTC      -0.000800
     18 H42         -0.7490    -0.0630    -4.0320 hc         1 NTC      -0.000800
@<TRIPOS>BOND
     1     1     2 1   
     2     1     3 1   
     3     1     4 1   
     4     4     5 1   
     5     4    14 1   
     6     4    15 1   
     7     5     6 1   
     8     5     7 1   
     9     5    11 1   
    10     6    16 1   
    11     7     8 1   
    12     7    17 1   
    13     7    18 1   
    14     8     9 1   
    15     8    10 1   
    16    11    12 1   
    17    11    13 1   
@<TRIPOS>SUBSTRUCTURE
     1 NTC         1 TEMP              0 ****  ****    0 ROOT
