@<TRIPOS>MOLECULE
molecule
   33    34     1     0     0
SMALL
bcc


@<TRIPOS>ATOM
      1 O1           0.0000     0.0000     0.0000 o          1 NTD      -0.539100
      2 C5           1.2140     0.0000     0.0000 c          1 NTD       0.586300
      3 C2           1.9630     0.0000     1.3070 c3         1 NTD      -0.172400
      4 C3           3.3040     0.7150     1.1240 c3         1 NTD      -0.079400
      5 C4           4.1130     0.0000     0.0380 c3         1 NTD      -0.172400
      6 C1           3.3320    -0.0060    -1.2500 c          1 NTD       0.586300
      7 O5           3.9190    -0.0060    -2.3120 o          1 NTD      -0.539100
      8 C6           1.9170    -0.0020    -1.2280 ce         1 NTD      -0.304400
      9 C7           1.2060    -0.0050    -2.4330 cf         1 NTD       0.273900
     10 O7          -0.1340    -0.1390    -2.4240 oh         1 NTD      -0.460100
     11 C8           1.9220     0.1390    -3.7100 ca         1 NTD      -0.005800
     12 C13          1.9350    -0.9150    -4.6310 ca         1 NTD      -0.122000
     13 C12          2.6090    -0.7710    -5.8260 ca         1 NTD      -0.043000
     14 C11          3.2720     0.4090    -6.1140 ca         1 NTD      -0.176300
     15 C14          4.0070     0.5560    -7.4220 c3         1 NTD       0.678200
     16 F2           3.8740    -0.6210    -8.1660 f          1 NTD      -0.215967
     17 F3           3.4650     1.6260    -8.1420 f          1 NTD      -0.215967
     18 F1           5.3610     0.7990    -7.1710 f          1 NTD      -0.215967
     19 C10          3.2650     1.4540    -5.2080 ca         1 NTD      -0.018000
     20 C9           2.5910     1.3310    -4.0120 ca         1 NTD      -0.103200
     21 N            2.5840     2.4510    -3.0430 no         1 NTD       0.295200
     22 ON2          3.2640     3.4390    -3.2510 o          1 NTD      -0.194500
     23 ON1          1.8980     2.3840    -2.0400 o          1 NTD      -0.194500
     24 H21          2.1400    -1.0220     1.6200 hc         1 NTD       0.074200
     25 H22          1.3780     0.5180     2.0570 hc         1 NTD       0.074200
     26 H31          3.1270     1.7420     0.8250 hc         1 NTD       0.059700
     27 H32          3.8540     0.6940     2.0560 hc         1 NTD       0.059700
     28 H41          5.0510     0.5210    -0.1130 hc         1 NTD       0.074200
     29 H42          4.3060    -1.0200     0.3470 hc         1 NTD       0.074200
     30 HO7         -0.3680    -0.9740    -2.7930 ho         1 NTD       0.438000
     31 H13          1.4170    -1.8390    -4.4070 ha         1 NTD       0.150000
     32 H12          2.6200    -1.5850    -6.5400 ha         1 NTD       0.164000
     33 H10          3.7850     2.3760    -5.4420 ha         1 NTD       0.182000
@<TRIPOS>BOND
     1     1     2 2
     2     2     3 1
     3     2     8 1
     4     3     4 1
     5     3    24 1
     6     3    25 1
     7     4     5 1
     8     4    26 1
     9     4    27 1
    10     5     6 1
    11     5    28 1
    12     5    29 1
    13     6     7 2
    14     6     8 1
    15     8     9 2
    16     9    10 1
    17     9    11 1
    18    10    30 1
    19    11    12 ar
    20    11    20 ar
    21    12    13 ar
    22    12    31 1
    23    13    14 ar
    24    13    32 1
    25    14    15 1
    26    14    19 ar
    27    15    16 1
    28    15    17 1
    29    15    18 1
    30    19    20 ar
    31    19    33 1
    32    20    21 1
    33    21    22 1
    34    21    23 1
@<TRIPOS>SUBSTRUCTURE
     1 NTD         1 TEMP              0 ****  ****    0 ROOT
