@<TRIPOS>MOLECULE
molecule
   56    59     1     0     0
SMALL
bcc


@<TRIPOS>ATOM
      1 C1           0.0000     0.0000     0.0000 c3         1 NTH      -0.070400
      2 C2           1.5290     0.0000     0.0000 c3         1 NTH      -0.180400
      3 C3           1.9840     0.0000     1.4450 c          1 NTH       0.573300
      4 O3           2.8120     0.7870     1.8550 o          1 NTH      -0.533100
      5 C4           1.3690    -1.0020     2.3230 ce         1 NTH      -0.272200
      6 C5           0.1980    -1.5440     1.9950 c2         1 NTH      -0.039400
      7 C6          -0.3830    -2.5870     2.9320 c3         1 NTH      -0.053200
      8 C7          -1.8410    -2.2270     3.2210 c3         1 NTH      -0.074400
      9 C8          -2.5980    -2.0990     1.8960 c3         1 NTH      -0.067700
     10 C9          -2.0310    -0.9120     1.1080 c3         1 NTH      -0.054700
     11 C10         -0.5630    -1.1980     0.7670 c3         1 NTH      -0.039500
     12 C11         -2.8050    -0.6680    -0.1860 c3         1 NTH      -0.082400
     13 C12         -4.3100    -0.5010     0.0760 c3         1 NTH      -0.054400
     14 C13         -4.7810    -1.7560     0.7840 c3         1 NTH      -0.064000
     15 C14         -4.0740    -1.7980     2.1630 c3         1 NTH      -0.065700
     16 C15         -4.8530    -2.8990     2.8920 c3         1 NTH      -0.079400
     17 C16         -6.3240    -2.6100     2.4900 c3         1 NTH      -0.096400
     18 C17         -6.2610    -1.8210     1.1450 c3         1 NTH       0.165100
     19 O17         -6.7870    -0.4800     1.3210 os         1 NTH      -0.445900
     20 C18         -4.3940    -2.9880    -0.0350 c3         1 NTH      -0.093100
     21 C20         -8.0890    -0.2350     1.1020 c          1 NTH       0.620100
     22 O20         -8.8220    -1.1310     0.7570 o          1 NTH      -0.567000
     23 C21        -10.1330     1.1620     0.9740 c3         1 NTH      -0.174400
     24 C22         -8.6350     1.1570     1.2850 c3         1 NTH      -0.102400
     25 C23        -10.6800     2.5540     1.1570 c          1 NTH       0.890600
     26 O23         -9.9460     3.4500     1.5010 o          1 NTH      -0.852300
     27 O24        -11.9810     2.7990     0.9370 o          1 NTH      -0.852300
     28 H11         -0.3520    -0.0400    -1.0240 hc         1 NTH       0.054200
     29 H12         -0.3520     0.9130     0.4650 hc         1 NTH       0.054200
     30 H21          1.8950    -0.8880    -0.5000 hc         1 NTH       0.065700
     31 H22          1.8950     0.8880    -0.5000 hc         1 NTH       0.065700
     32 H7           1.8920    -1.3390     3.2100 ha         1 NTH       0.146000
     33 H61         -0.3360    -3.5630     2.4630 hc         1 NTH       0.051200
     34 H62          0.1790    -2.5960     3.8580 hc         1 NTH       0.051200
     35 H71         -2.2940    -3.0080     3.8210 hc         1 NTH       0.049700
     36 H72         -1.8820    -1.2850     3.7530 hc         1 NTH       0.049700
     37 H8          -2.5010    -3.0110     1.3190 hc         1 NTH       0.062700
     38 H9          -2.0840    -0.0220     1.7230 hc         1 NTH       0.061700
     39 H10         -0.5350    -2.0570     0.1080 hc         1 NTH       0.060700
     40 H111        -2.6550    -1.5110    -0.8500 hc         1 NTH       0.039200
     41 H112        -2.4280     0.2310    -0.6570 hc         1 NTH       0.039200
     42 H121        -4.4800     0.3630     0.7070 hc         1 NTH       0.059700
     43 H122        -4.8370    -0.3890    -0.8630 hc         1 NTH       0.059700
     44 H14         -4.1850    -0.8500     2.6750 hc         1 NTH       0.074700
     45 H151        -4.7260    -2.8100     3.9640 hc         1 NTH       0.040200
     46 H152        -4.5470    -3.8780     2.5430 hc         1 NTH       0.040200
     47 H161        -6.8610    -3.5410     2.3490 hc         1 NTH       0.056700
     48 H162        -6.8060    -2.0080     3.2510 hc         1 NTH       0.056700
     49 H17         -6.8110    -2.3490     0.3750 h1         1 NTH       0.069700
     50 H181        -5.1280    -3.7700     0.1190 hc         1 NTH       0.038033
     51 H182        -4.3600    -2.7280    -1.0860 hc         1 NTH       0.038033
     52 H183        -3.4200    -3.3410     0.2810 hc         1 NTH       0.038033
     53 H221       -10.6440     0.4830     1.6460 hc         1 NTH       0.044700
     54 H222       -10.2910     0.8430    -0.0490 hc         1 NTH       0.044700
     55 H211        -8.4770     1.4740     2.3090 hc         1 NTH       0.077200
     56 H212        -8.1240     1.8360     0.6140 hc         1 NTH       0.077200
@<TRIPOS>BOND
     1     1     2 1
     2     1    11 1
     3     1    28 1
     4     1    29 1
     5     2     3 1
     6     2    30 1
     7     2    31 1
     8     3     4 2
     9     3     5 1
    10     5     6 2
    11     5    32 1
    12     6     7 1
    13     6    11 1
    14     7     8 1
    15     7    33 1
    16     7    34 1
    17     8     9 1
    18     8    35 1
    19     8    36 1
    20     9    10 1
    21     9    15 1
    22     9    37 1
    23    10    11 1
    24    10    12 1
    25    10    38 1
    26    11    39 1
    27    12    13 1
    28    12    40 1
    29    12    41 1
    30    13    14 1
    31    13    42 1
    32    13    43 1
    33    14    15 1
    34    14    18 1
    35    14    20 1
    36    15    16 1
    37    15    44 1
    38    16    17 1
    39    16    45 1
    40    16    46 1
    41    17    18 1
    42    17    47 1
    43    17    48 1
    44    18    19 1
    45    18    49 1
    46    19    21 1
    47    20    50 1
    48    20    51 1
    49    20    52 1
    50    21    22 2
    51    21    24 1
    52    23    24 1
    53    23    25 1
    54    23    53 1
    55    23    54 1
    56    24    55 1
    57    24    56 1
    58    25    26 1
    59    25    27 1
@<TRIPOS>SUBSTRUCTURE
     1 NTH         1 TEMP              0 ****  ****    0 ROOT
