@<TRIPOS>MOLECULE
NTH
   56    59     1     0     0
SMALL
bcc


@<TRIPOS>ATOM
      1 C1         -0.1120    0.1830    0.1500 c3        1 NTH     -0.073400
      2 C2          1.3980    0.2260    0.1020 c3        1 NTH     -0.181400
      3 C3          2.0000    0.1260    1.4750 c         1 NTH      0.573300
      4 O3          3.0470    0.7150    1.7750 o         1 NTH     -0.549100
      5 C4          1.2920   -0.7490    2.4160 ce        1 NTH     -0.280200
      6 C5          0.0930   -1.3000    2.1530 c2        1 NTH     -0.018400
      7 C6         -0.5030   -2.2730    3.1120 c3        1 NTH     -0.055200
      8 C7         -1.9990   -2.1100    3.2720 c3        1 NTH     -0.074400
      9 C8         -2.6790   -2.1010    1.9150 c3        1 NTH     -0.049700
     10 C9         -2.1570   -0.9140    1.0930 c3        1 NTH     -0.052700
     11 C10        -0.6450   -1.0500    0.8720 c3        1 NTH     -0.037500
     12 C11        -2.8870   -0.7730   -0.2390 c3        1 NTH     -0.070400
     13 C12        -4.4030   -0.8020   -0.1260 c3        1 NTH     -0.065400
     14 C13        -4.8680   -2.0120    0.6630 c3        1 NTH     -0.059000
     15 C14        -4.1790   -1.9590    2.0440 c3        1 NTH     -0.066700
     16 C15        -4.9570   -2.9540    2.8930 c3        1 NTH     -0.069400
     17 C16        -6.4010   -2.8230    2.4020 c3        1 NTH     -0.091400
     18 C17        -6.3680   -2.0540    1.0620 c3        1 NTH      0.145100
     19 O17        -6.8490   -0.7330    1.3060 os        1 NTH     -0.453900
     20 C18        -4.5860   -3.2890   -0.1140 c3        1 NTH     -0.085100
     21 C20        -7.8830   -0.2390    0.5380 c         1 NTH      0.640100
     22 O20        -8.3210   -0.9630   -0.3600 o         1 NTH     -0.572000
     23 C21        -9.7250    1.2110    1.3780 c3        1 NTH     -0.201400
     24 C22        -8.2790    1.1420    0.9490 c3        1 NTH     -0.108400
     25 C23       -10.1610    2.6800    1.5650 c         1 NTH      0.913600
     26 O23        -9.5380    3.5770    0.9280 o         1 NTH     -0.842300
     27 O24       -11.1300    2.8980    2.3440 o         1 NTH     -0.842300
     28 H11        -0.5040    0.1910   -0.9010 hc        1 NTH      0.054200
     29 H12        -0.4960    1.1060    0.6600 hc        1 NTH      0.054200
     30 H21         1.7380    1.1720   -0.3950 hc        1 NTH      0.067700
     31 H22         1.7900   -0.6350   -0.5050 hc        1 NTH      0.067700
     32 H7          1.8170   -0.9400    3.3660 ha        1 NTH      0.143000
     33 H61        -0.0110   -2.1800    4.1170 hc        1 NTH      0.051700
     34 H62        -0.2820   -3.3070    2.7280 hc        1 NTH      0.051700
     35 H71        -2.2250   -1.1560    3.8170 hc        1 NTH      0.049200
     36 H72        -2.4040   -2.9540    3.8890 hc        1 NTH      0.049200
     37 H8         -2.4300   -3.0610    1.3840 hc        1 NTH      0.048700
     38 H9         -2.3430    0.0240    1.6890 hc        1 NTH      0.060700
     39 H10        -0.4660   -1.9530    0.2170 hc        1 NTH      0.060700
     40 H111       -2.5970    0.2070   -0.7070 hc        1 NTH      0.035200
     41 H112       -2.5470   -1.5860   -0.9330 hc        1 NTH      0.035200
     42 H121       -4.7670    0.1300    0.3820 hc        1 NTH      0.058200
     43 H122       -4.8480   -0.8220   -1.1550 hc        1 NTH      0.058200
     44 H14        -4.3880   -0.9340    2.4740 hc        1 NTH      0.068700
     45 H151       -4.8740   -2.7110    3.9800 hc        1 NTH      0.035700
     46 H152       -4.5750   -3.9950    2.7450 hc        1 NTH      0.035700
     47 H161       -6.8610   -3.8280    2.2480 hc        1 NTH      0.054200
     48 H162       -7.0210   -2.2600    3.1430 hc        1 NTH      0.054200
     49 H17        -6.9860   -2.5640    0.2770 h1        1 NTH      0.083700
     50 H181       -5.1710   -3.2860   -1.0650 hc        1 NTH      0.033367
     51 H182       -3.5050   -3.3810   -0.3700 hc        1 NTH      0.033367
     52 H183       -4.8850   -4.1830    0.4860 hc        1 NTH      0.033367
     53 H221      -10.3830    0.7520    0.5990 hc        1 NTH      0.036700
     54 H222       -9.8800    0.6580    2.3370 hc        1 NTH      0.036700
     55 H211       -8.1300    1.8290    0.0690 hc        1 NTH      0.087200
     56 H212       -7.6160    1.5000    1.7790 hc        1 NTH      0.087200
@<TRIPOS>BOND
     1    1    2 1   
     2    1   11 1   
     3    1   28 1   
     4    1   29 1   
     5    2    3 1   
     6    2   30 1   
     7    2   31 1   
     8    3    4 2   
     9    3    5 1   
    10    5    6 2   
    11    5   32 1   
    12    6    7 1   
    13    6   11 1   
    14    7    8 1   
    15    7   33 1   
    16    7   34 1   
    17    8    9 1   
    18    8   35 1   
    19    8   36 1   
    20    9   10 1   
    21    9   15 1   
    22    9   37 1   
    23   10   11 1   
    24   10   12 1   
    25   10   38 1   
    26   11   39 1   
    27   12   13 1   
    28   12   40 1   
    29   12   41 1   
    30   13   14 1   
    31   13   42 1   
    32   13   43 1   
    33   14   15 1   
    34   14   18 1   
    35   14   20 1   
    36   15   16 1   
    37   15   44 1   
    38   16   17 1   
    39   16   45 1   
    40   16   46 1   
    41   17   18 1   
    42   17   47 1   
    43   17   48 1   
    44   18   19 1   
    45   18   49 1   
    46   19   21 1   
    47   20   50 1   
    48   20   51 1   
    49   20   52 1   
    50   21   22 2   
    51   21   24 1   
    52   23   24 1   
    53   23   25 1   
    54   23   53 1   
    55   23   54 1   
    56   24   55 1   
    57   24   56 1   
    58   25   26 1   
    59   25   27 1   
@<TRIPOS>SUBSTRUCTURE
     1 NTH         1 TEMP              0 ****  ****    0 ROOT
