@<TRIPOS>MOLECULE
molecule
   30    31     1     0     0
SMALL
bcc


@<TRIPOS>ATOM
      1 S            0.0000     0.0000     0.0000 ss         1 NTI      -0.112300
      2 C1           4.6930     0.0010    -2.2330 ca         1 NTI      -0.160600
      3 N1           2.5050     0.0000    -1.1390 ns         1 NTI      -0.526400
      4 C2           6.0880     0.0010    -2.1180 ca         1 NTI       0.182100
      5 N2           2.1560     0.0000     1.2170 nc         1 NTI      -0.696000
      6 C3           3.8470     0.0000    -1.0230 c          1 NTI       0.671700
      7 N3          -1.2130    -0.0000     2.6250 no         1 NTI       0.339200
      8 O3           6.6310    -2.2090    -0.9230 o          1 NTI      -0.539000
      9 C4           4.1040     0.0060    -3.5000 ca         1 NTI      -0.095000
     10 O4          -1.0930    -0.0010     3.8370 o          1 NTI      -0.197000
     11 C5           6.8720     0.0020    -3.2610 ca         1 NTI      -0.135000
     12 O5          -2.3220    -0.0010     2.1230 o          1 NTI      -0.197000
     13 C6           4.8990     0.0130    -4.6260 ca         1 NTI      -0.135000
     14 C7           1.7100     0.0000     0.0000 cd         1 NTI       0.601300
     15 C8           6.2790     0.0020    -4.5080 ca         1 NTI      -0.085000
     16 C9          -0.0090    -0.0000     1.7620 cd         1 NTI      -0.277600
     17 C10          1.2560     0.0000     2.1840 cc         1 NTI       0.486200
     18 C11          6.8750    -1.1950    -0.3140 c          1 NTI       0.650100
     19 C12          7.4080    -1.2700     1.0940 c3         1 NTI      -0.129100
     20 HN1          2.0810    -0.0150    -2.0460 hn         1 NTI       0.343500
     21 H4           3.0250     0.0110    -3.5970 ha         1 NTI       0.124000
     22 H5           7.9520    -0.0020    -3.1760 ha         1 NTI       0.152000
     23 H6           4.4420     0.0150    -5.6090 ha         1 NTI       0.140000
     24 H8           6.8970     0.0050    -5.3980 ha         1 NTI       0.143000
     25 H10          1.5240     0.0000     3.2330 h4         1 NTI       0.075100
     26 H12          7.4340    -0.2760     1.5240 hc         1 NTI       0.073700
     27 H12A         6.7640    -1.9050     1.6900 hc         1 NTI       0.073700
     28 H12B         8.4090    -1.6830     1.0790 hc         1 NTI       0.073700
     29 O1           6.6710     0.0010    -0.8920 os         1 NTI      -0.331200
     30 O2           4.3630     0.0010     0.0780 o          1 NTI      -0.516100
@<TRIPOS>BOND
     1     1    14 1
     2     1    16 1
     3     2     4 ar
     4     2     6 1
     5     2     9 ar
     6     3     6 1
     7     3    14 1
     8    29     4 1
     9    29    18 1
    10     4    11 ar
    11     5    14 2
    12     5    17 1
    13    30     6 2
    14     7    10 1
    15     7    12 1
    16     7    16 1
    17     8    18 2
    18     9    13 ar
    19    11    15 ar
    20    13    15 ar
    21    16    17 2
    22    18    19 1
    23     3    20 1
    24     9    21 1
    25    11    22 1
    26    13    23 1
    27    15    24 1
    28    17    25 1
    29    19    26 1
    30    19    27 1
    31    19    28 1
@<TRIPOS>SUBSTRUCTURE
     1 NTI         1 TEMP              0 ****  ****    0 ROOT
