@<TRIPOS>MOLECULE
NTI
   30    31     1     0     0
SMALL
bcc


@<TRIPOS>ATOM
      1 S            0.0000     0.0000     0.0000 ss         1 NTI      -0.223300
      2 C1           4.6930     0.0010    -2.2330 ca         1 NTI      -0.185600
      3 N1           2.5050     0.0000    -1.1390 ns         1 NTI      -0.070400
      4 C2           6.0880     0.0010    -2.1180 ca         1 NTI       0.205100
      5 N2           2.1560     0.0000     1.2170 nc         1 NTI      -0.597000
      6 C3           3.8470     0.0000    -1.0230 c          1 NTI       0.578700
      7 N3          -1.2130    -0.0000     2.6250 no         1 NTI       1.108200
      8 O3           6.6310    -2.2090    -0.9230 o          1 NTI      -0.585000
      9 C4           4.1040     0.0060    -3.5000 ca         1 NTI      -0.068000
     10 O4          -1.0930    -0.0010     3.8370 o          1 NTI      -0.448500
     11 C5           6.8720     0.0020    -3.2610 ca         1 NTI      -0.120000
     12 O5          -2.3220    -0.0010     2.1230 o          1 NTI      -0.448500
     13 C6           4.8990     0.0130    -4.6260 ca         1 NTI      -0.110000
     14 C7           1.7100     0.0000     0.0000 cd         1 NTI       0.464300
     15 C8           6.2790     0.0020    -4.5080 ca         1 NTI      -0.049000
     16 C9          -0.0090    -0.0000     1.7620 cd         1 NTI      -0.519600
     17 C10          1.2560     0.0000     2.1840 cc         1 NTI       0.521200
     18 C11          6.8750    -1.1950    -0.3140 c          1 NTI       0.710100
     19 C12          7.4080    -1.2700     1.0940 c3         1 NTI      -0.029100
     20 HN1          2.0810    -0.0150    -2.0460 hn         1 NTI       0.186500
     21 H4           3.0250     0.0110    -3.5970 ha         1 NTI       0.098000
     22 H5           7.9520    -0.0020    -3.1760 ha         1 NTI       0.120000
     23 H6           4.4420     0.0150    -5.6090 ha         1 NTI       0.110000
     24 H8           6.8970     0.0050    -5.3980 ha         1 NTI       0.108000
     25 H10          1.5240     0.0000     3.2330 h4         1 NTI       0.021100
     26 H12          7.4340    -0.2760     1.5240 hc         1 NTI       0.030367
     27 H12A         6.7640    -1.9050     1.6900 hc         1 NTI       0.030367
     28 H12B         8.4090    -1.6830     1.0790 hc         1 NTI       0.030367
     29 O1           6.6710     0.0010    -0.8920 os         1 NTI      -0.311200
     30 O2           4.3630     0.0010     0.0780 o          1 NTI      -0.558100
@<TRIPOS>BOND
     1     1    14 1   
     2     1    16 1   
     3     2     4 ar  
     4     2     6 1   
     5     2     9 ar  
     6     3     6 1   
     7     3    14 1   
     8     3    20 1   
     9     4    11 ar  
    10     4    29 1   
    11     5    14 2   
    12     5    17 1   
    13     6    30 2   
    14     7    10 1   
    15     7    12 1   
    16     7    16 1   
    17     8    18 2   
    18     9    13 ar  
    19     9    21 1   
    20    11    15 ar  
    21    11    22 1   
    22    13    15 ar  
    23    13    23 1   
    24    15    24 1   
    25    16    17 2   
    26    17    25 1   
    27    18    19 1   
    28    18    29 1   
    29    19    26 1   
    30    19    27 1   
    31    19    28 1   
@<TRIPOS>SUBSTRUCTURE
     1 NTI         1 TEMP              0 ****  ****    0 ROOT
