@<TRIPOS>MOLECULE
molecule
   20    19     1     0     0
SMALL
bcc


@<TRIPOS>ATOM
      1 O1           0.0000     0.0000     0.0000 o          1 NTJ      -0.757300
      2 P1           1.5110     0.0000     0.0000 p5         1 NTJ       1.296400
      3 N1           2.2050     0.0000     1.5200 n3         1 NTJ      -0.830700
      4 C2           1.6940     0.9630     2.4960 c3         1 NTJ       0.187100
      5 C1           2.3690    -1.3050     2.1580 c3         1 NTJ       0.187100
      6 O2           2.0600     1.3460    -0.7430 os         1 NTJ      -0.527200
      7 C3           3.4570     1.5840    -0.7610 c3         1 NTJ       0.168400
      8 C4           3.7260     2.8790    -1.4980 c3         1 NTJ      -0.093100
      9 H2C1         1.3120     1.8340     1.9770 h1         1 NTJ       0.041867
     10 H2C2         0.8970     0.5070     3.0700 h1         1 NTJ       0.041867
     11 H2C3         2.4940     1.2610     3.1620 h1         1 NTJ       0.041867
     12 H1C1         2.9050    -1.1860     3.0920 h1         1 NTJ       0.041867
     13 H1C2         2.9300    -1.9600     1.5020 h1         1 NTJ       0.041867
     14 H1C3         1.3950    -1.7370     2.3530 h1         1 NTJ       0.041867
     15 H3C1         3.8250     1.6610     0.2550 h1         1 NTJ       0.028700
     16 H3C2         3.9580     0.7680    -1.2680 h1         1 NTJ       0.028700
     17 H4C1         4.7910     3.0740    -1.5080 hc         1 NTJ       0.048700
     18 H4C2         3.2140     3.6920    -0.9980 hc         1 NTJ       0.048700
     19 H4C3         3.3640     2.7970    -2.5160 hc         1 NTJ       0.048700
     20 HP1          1.9540    -1.1540    -0.6680 hp         1 NTJ      -0.085400
@<TRIPOS>BOND
     1     1     2 2
     2     2     3 1
     3     2     6 1
     4     3     4 1
     5     3     5 1
     6     4     9 1
     7     4    10 1
     8     4    11 1
     9     5    12 1
    10     5    13 1
    11     5    14 1
    12     6     7 1
    13     7     8 1
    14     7    15 1
    15     7    16 1
    16     8    17 1
    17     8    18 1
    18     8    19 1
    19    20     2 1
@<TRIPOS>SUBSTRUCTURE
     1 NTJ         1 TEMP              0 ****  ****    0 ROOT
