@<TRIPOS>MOLECULE
molecule
   15    15     1     0     0
SMALL
bcc


@<TRIPOS>ATOM
      1 N1           0.0000     0.0000     0.0000 nb         1 NTM      -0.673000
      2 C2           1.3240     0.0000     0.0000 ca         1 NTM       0.413800
      3 C3           2.0350     0.0000     1.2110 ca         1 NTM      -0.175900
      4 C4           1.3200     0.0120     2.4120 ca         1 NTM      -0.117000
      5 C5          -0.0640     0.0190     2.3530 ca         1 NTM      -0.312300
      6 C6          -0.6930     0.0120     1.1180 ca         1 NTM       0.346200
      7 C7           2.0600    -0.0140    -1.2870 c          1 NTM       0.777100
      8 O1           3.2700     0.0820    -1.2940 o          1 NTM      -0.819300
      9 O2           1.3870    -0.1320    -2.4470 o          1 NTM      -0.819300
     10 C8           3.5130    -0.0070     1.2150 c          1 NTM       0.908200
     11 O3           4.1180    -0.8750     0.6180 o          1 NTM      -0.842300
     12 O4           4.1900     0.9470     1.8820 o          1 NTM      -0.842300
     13 H4           1.8350     0.0150     3.3650 ha         1 NTM       0.117000
     14 H5          -0.6490     0.0280     3.2640 ha         1 NTM       0.077000
     15 H6          -1.7760     0.0140     1.0730 h4         1 NTM      -0.036900
@<TRIPOS>BOND
     1     1     2 ar
     2     1     6 ar
     3     2     3 ar
     4     2     7 1
     5     3     4 ar
     6     3    10 1
     7     4     5 ar
     8     4    13 1
     9     5     6 ar
    10     5    14 1
    11     6    15 1
    12     7     8 1
    13     7     9 1
    14    10    11 1
    15    10    12 1
@<TRIPOS>SUBSTRUCTURE
     1 NTM         1 TEMP              0 ****  ****    0 ROOT
