@<TRIPOS>MOLECULE
NTM
   15    15     1     0     0
SMALL
bcc


@<TRIPOS>ATOM
      1 N1          0.0050    0.3170   -0.0370 nb        1 NTM     -0.695000
      2 C2          1.3500    0.1470   -0.0350 ca        1 NTM      0.407800
      3 C3          2.0680   -0.1070    1.1690 ca        1 NTM     -0.178900
      4 C4          1.3410   -0.1760    2.3630 ca        1 NTM     -0.120000
      5 C5         -0.0440   -0.0010    2.3630 ca        1 NTM     -0.310300
      6 C6         -0.6610    0.2430    1.1310 ca        1 NTM      0.339200
      7 C7          2.0080    0.2520   -1.4310 c         1 NTM      0.841100
      8 O1          2.3580    1.3970   -1.8270 o         1 NTM     -0.835300
      9 O2          2.0800   -0.7990   -2.1240 o         1 NTM     -0.835300
     10 C8          3.5670   -0.3180    1.3300 c         1 NTM      0.929200
     11 O3          4.0120   -1.5030    1.3130 o         1 NTM     -0.847300
     12 O4          4.2880    0.6830    1.6110 o         1 NTM     -0.847300
     13 H4          1.8740   -0.3710    3.3050 ha        1 NTM      0.110000
     14 H5         -0.6270   -0.0520    3.2880 ha        1 NTM      0.083000
     15 H6         -1.7510    0.3900    1.0670 h4        1 NTM     -0.041900
@<TRIPOS>BOND
     1    1    2 ar  
     2    1    6 ar  
     3    2    3 ar  
     4    2    7 1   
     5    3    4 ar  
     6    3   10 1   
     7    4    5 ar  
     8    4   13 1   
     9    5    6 ar  
    10    5   14 1   
    11    6   15 1   
    12    7    8 1   
    13    7    9 1   
    14   10   11 1   
    15   10   12 1   
@<TRIPOS>SUBSTRUCTURE
     1 NTM         1 TEMP              0 ****  ****    0 ROOT
