@<TRIPOS>MOLECULE
NTN
   17    17     1     0     0
SMALL
bcc


@<TRIPOS>ATOM
      1 NZ           0.0000     0.0000     0.0000 nz         1 NTN       0.127400
      2 CI1          1.3910     0.0000     0.0000 ce         1 NTN       0.228800
      3 CI2          2.2140     0.0000     1.1980 ca         1 NTN      -0.158900
      4 NI1          2.0010     0.0010    -1.1670 n2         1 NTN      -0.457100
      5 CI3          1.6180    -0.0020     2.4550 ca         1 NTN      -0.177300
      6 CI4          2.4470    -0.0020     3.5650 ca         1 NTN       0.428700
      7 NI2          3.7980    -0.0020     3.5020 nb         1 NTN      -0.507000
      8 CI5          4.3410    -0.0000     2.2640 ca         1 NTN       0.428700
      9 CI6          3.6010    -0.0000     1.0920 ca         1 NTN      -0.177300
     10 HZ1         -0.3340     0.8170     0.4720 hn         1 NTN       0.228133
     11 HZ2         -0.3340    -0.8170     0.4710 hn         1 NTN       0.228133
     12 H2           1.4650     0.0020    -2.0130 hn         1 NTN       0.338400
     13 H3           0.5400    -0.0010     2.5630 ha         1 NTN       0.122000
     14 H4           1.9840    -0.0030     4.5450 h4         1 NTN      -0.001900
     15 H5           5.4210    -0.0000     2.1820 h4         1 NTN      -0.001900
     16 H6           4.0870     0.0010     0.1240 ha         1 NTN       0.122000
     17 HZ3         -0.3340    -0.0060    -0.9440 hn         1 NTN       0.228133
@<TRIPOS>BOND
     1     1     2 1   
     2     1    10 1   
     3     1    11 1   
     4     1    17 1   
     5     2     3 1   
     6     2     4 2   
     7     3     5 ar  
     8     3     9 ar  
     9     4    12 1   
    10     5     6 ar  
    11     5    13 1   
    12     6     7 ar  
    13     6    14 1   
    14     7     8 ar  
    15     8     9 ar  
    16     8    15 1   
    17     9    16 1   
@<TRIPOS>SUBSTRUCTURE
     1 NTN         1 TEMP              0 ****  ****    0 ROOT
