@<TRIPOS>MOLECULE
NTS
   27    28     1     0     0
SMALL
bcc


@<TRIPOS>ATOM
      1 C1         -0.0170   -0.0460   -0.0420 ca        1 NTS     -0.324500
      2 C2          1.3630   -0.0200   -0.0190 ca        1 NTS      0.051000
      3 C3          2.1210    0.0320    1.1770 ca        1 NTS     -0.334500
      4 C4          1.4380    0.0530    2.3710 ca        1 NTS      0.003000
      5 C5         -0.6790    0.0470    3.6600 ca        1 NTS     -0.008000
      6 C6         -2.0530    0.0180    3.7270 ca        1 NTS     -0.327500
      7 C7         -2.7710   -0.0220    2.5030 ca        1 NTS     -0.058000
      8 C8         -2.1360   -0.0430    1.2880 ca        1 NTS     -0.159000
      9 C9         -0.7120   -0.0220    1.2020 ca        1 NTS      0.096000
     10 C10         0.0180    0.0260    2.4200 ca        1 NTS     -0.120000
     11 O11        -1.6170   -1.3070   -1.6070 o         1 NTS     -0.760867
     12 O12        -1.6850    1.0460   -1.6620 o         1 NTS     -0.760867
     13 O13         0.1540   -0.1000   -2.5920 o         1 NTS     -0.760867
     14 O31         4.3060   -1.0590    0.4070 o         1 NTS     -0.762200
     15 O32         4.2540    1.2980    0.5450 o         1 NTS     -0.762200
     16 O33         4.2840    0.0010    2.5150 o         1 NTS     -0.762200
     17 O61        -3.0600   -1.3350    5.6440 o         1 NTS     -0.764200
     18 O62        -4.1830    0.6310    4.9870 o         1 NTS     -0.764200
     19 O63        -2.1300    0.7710    6.1600 o         1 NTS     -0.764200
     20 S1         -0.8510   -0.1060   -1.5810 s6        1 NTS      1.451100
     21 S3          3.8640    0.0700    1.1510 s6        1 NTS      1.454100
     22 S6         -2.9150    0.0220    5.2340 s6        1 NTS      1.455100
     23 H2          1.9140   -0.0420   -0.9800 ha        1 NTS      0.152000
     24 H4          2.0000    0.0900    3.3210 ha        1 NTS      0.135000
     25 H5         -0.0900    0.0970    4.5910 ha        1 NTS      0.125000
     26 H7         -3.8730   -0.0240    2.5570 ha        1 NTS      0.124000
     27 H8         -2.7100   -0.0720    0.3460 ha        1 NTS      0.149000
@<TRIPOS>BOND
     1    1    2 ar  
     2    1    9 ar  
     3    1   20 1   
     4    2    3 ar  
     5    2   23 1   
     6    3    4 ar  
     7    3   21 1   
     8    4   10 ar  
     9    4   24 1   
    10    5    6 ar  
    11    5   10 ar  
    12    5   25 1   
    13    6    7 ar  
    14    6   22 1   
    15    7    8 ar  
    16    7   26 1   
    17    8    9 ar  
    18    8   27 1   
    19    9   10 ar  
    20   11   20 1   
    21   12   20 1   
    22   13   20 1   
    23   14   21 1   
    24   15   21 1   
    25   16   21 1   
    26   17   22 1   
    27   18   22 1   
    28   19   22 1   
@<TRIPOS>SUBSTRUCTURE
     1 NTS         1 TEMP              0 ****  ****    0 ROOT
