@<TRIPOS>MOLECULE
molecule
   27    28     1     0     0
SMALL
bcc


@<TRIPOS>ATOM
      1 C1           0.0000     0.0000     0.0000 ca         1 NTS      -0.302500
      2 C2           1.3610     0.0000     0.0000 ca         1 NTS       0.050000
      3 C3           2.0780     0.0000     1.1960 ca         1 NTS      -0.309500
      4 C4           1.4380     0.0000     2.3960 ca         1 NTS       0.003000
      5 C5          -0.6620     0.0050     3.6580 ca         1 NTS      -0.023000
      6 C6          -2.0230     0.0000     3.6560 ca         1 NTS      -0.297500
      7 C7          -2.7410     0.0000     2.4620 ca         1 NTS      -0.060000
      8 C8          -2.1010     0.0000     1.2600 ca         1 NTS      -0.162000
      9 C9          -0.6960     0.0000     1.2210 ca         1 NTS       0.085000
     10 C10          0.0330     0.0000     2.4360 ca         1 NTS      -0.107000
     11 O11         -1.2390    -1.3850    -1.7930 o          1 NTS      -0.735533
     12 O12         -2.0550     0.8400    -1.3200 o          1 NTS      -0.735533
     13 O13          0.0190     0.5450    -2.5240 o          1 NTS      -0.735533
     14 O31          4.2500    -1.3960     1.1400 o          1 NTS      -0.737200
     15 O32          4.2200     0.6970    -0.0680 o          1 NTS      -0.737200
     16 O33          4.2810     0.6970     2.3480 o          1 NTS      -0.737200
     17 O61         -3.0940    -1.3960     5.5470 o          1 NTS      -0.740200
     18 O62         -4.1460     0.6980     4.9520 o          1 NTS      -0.740200
     19 O63         -2.0430     0.6970     6.1430 o          1 NTS      -0.740200
     20 S1          -0.8850     0.0000    -1.5240 s6         1 NTS       1.355100
     21 S3           3.8400    -0.0000     1.1510 s6         1 NTS       1.351100
     22 S6          -2.8920     0.0000     5.1890 s6         1 NTS       1.352100
     23 H2           1.8950    -0.0000    -0.9430 ha         1 NTS       0.153000
     24 H4           2.0090    -0.0000     3.3170 ha         1 NTS       0.128000
     25 H5          -0.1180     0.0050     4.5950 ha         1 NTS       0.130000
     26 H7          -3.8240    -0.0040     2.4900 ha         1 NTS       0.121000
     27 H8          -2.6710     0.0000     0.3390 ha         1 NTS       0.173000
@<TRIPOS>BOND
     1     1     2 ar
     2     1     9 ar
     3     1    20 1
     4     2     3 ar
     5     2    23 1
     6     3     4 ar
     7     3    21 1
     8     4    10 ar
     9     4    24 1
    10     5     6 ar
    11     5    10 ar
    12     5    25 1
    13     6     7 ar
    14     6    22 1
    15     7     8 ar
    16     7    26 1
    17     8     9 ar
    18     8    27 1
    19     9    10 ar
    20    11    20 1
    21    12    20 1
    22    13    20 1
    23    14    21 1
    24    15    21 1
    25    16    21 1
    26    17    22 1
    27    18    22 1
    28    19    22 1
@<TRIPOS>SUBSTRUCTURE
     1 NTS         1 TEMP              0 ****  ****    0 ROOT
