@<TRIPOS>MOLECULE
molecule
   64    63     1     0     0
SMALL
bcc


@<TRIPOS>ATOM
      1 C2'          0.0000     0.0000     0.0000 c3         1 NTU      -0.036500
      2 S1'          1.8060     0.0000     0.0000 ss         1 NTU      -0.240300
      3 N1           2.8450     0.9860     2.2110 n2         1 NTU      -0.433900
      4 N2           1.6420    -1.0910     2.3830 nz         1 NTU      -0.736100
      5 C1'          2.1650     0.0000     1.7390 c2         1 NTU       0.384600
      6 C1           3.2650     2.0070     1.2500 c3         1 NTU       0.105800
      7 C2           4.1020     3.0700     1.9570 c3         1 NTU      -0.078900
      8 C3           3.3150     3.7950     3.0530 c3         1 NTU      -0.080400
      9 C4           4.1390     4.8590     3.7860 c3         1 NTU      -0.075400
     10 C5           3.3610     5.5700     4.8950 c3         1 NTU      -0.074400
     11 C6           4.1880     6.6250     5.6360 c3         1 NTU      -0.076900
     12 C7           3.4370     7.4320     6.7000 c3         1 NTU      -0.074400
     13 C8           4.3270     8.4310     7.4450 c3         1 NTU      -0.074400
     14 C9           3.5890     9.1940     8.5490 c3         1 NTU      -0.076900
     15 C10          4.4950    10.1390     9.3420 c3         1 NTU      -0.074400
     16 C11          3.7150    10.8570    10.4460 c3         1 NTU      -0.075400
     17 C12          4.6140    11.8260    11.2190 c3         1 NTU      -0.080400
     18 C13          3.8790    12.5820    12.3290 c3         1 NTU      -0.078900
     19 C14          4.7650    13.5680    13.0810 c3         1 NTU       0.105800
     20 C4'          6.3240    15.5740    16.1930 c3         1 NTU      -0.036500
     21 S2'          6.4850    15.2890    14.4170 ss         1 NTU      -0.240300
     22 N3           5.8690    12.8320    13.7010 n2         1 NTU      -0.433900
     23 N4           7.8490    13.1310    15.0360 nz         1 NTU      -0.736100
     24 C3'          6.7260    13.5310    14.3570 c2         1 NTU       0.384600
     25 H2'1        -0.3610     0.4200    -0.9310 h1         1 NTU       0.086867
     26 H2'2        -0.3610     0.5970     0.8290 h1         1 NTU       0.086867
     27 H2'3        -0.3610    -1.0160     0.1020 h1         1 NTU       0.086867
     28 HN21         2.2580    -1.3700     3.1210 hn         1 NTU       0.468800
     29 HN22         1.5380    -1.8450     1.7330 hn         1 NTU       0.468800
     30 H11          3.8570     1.5450     0.4690 h1         1 NTU       0.097450
     31 H12          2.3900     2.4710     0.8120 h1         1 NTU       0.097450
     32 H21          4.4370     3.7960     1.2270 hc         1 NTU       0.068200
     33 H22          4.9680     2.5960     2.4030 hc         1 NTU       0.068200
     34 H31          2.4530     4.2730     2.6030 hc         1 NTU       0.040450
     35 H32          2.9710     3.0640     3.7750 hc         1 NTU       0.040450
     36 H41          4.4700     5.5980     3.0660 hc         1 NTU       0.046450
     37 H42          5.0100     4.3840     4.2220 hc         1 NTU       0.046450
     38 H51          2.4950     6.0520     4.4580 hc         1 NTU       0.039950
     39 H52          3.0220     4.8300     5.6100 hc         1 NTU       0.039950
     40 H61          4.5840     7.3190     4.9040 hc         1 NTU       0.041200
     41 H62          5.0210     6.1260     6.1170 hc         1 NTU       0.041200
     42 H71          3.0100     6.7440     7.4200 hc         1 NTU       0.040200
     43 H72          2.6320     7.9750     6.2200 hc         1 NTU       0.040200
     44 H81          4.7180     9.1460     6.7310 hc         1 NTU       0.040200
     45 H82          5.1560     7.8930     7.8890 hc         1 NTU       0.040200
     46 H91          2.7930     9.7740     8.0980 hc         1 NTU       0.041200
     47 H92          3.1520     8.4770     9.2340 hc         1 NTU       0.041200
     48 H101         4.9160    10.8750     8.6680 hc         1 NTU       0.039950
     49 H102         5.2980     9.5670     9.7900 hc         1 NTU       0.039950
     50 H111         2.8970    11.4110    10.0000 hc         1 NTU       0.046450
     51 H112         3.3120    10.1220    11.1320 hc         1 NTU       0.046450
     52 H121         5.4280    11.2650    11.6610 hc         1 NTU       0.040450
     53 H122         5.0270    12.5460    10.5230 hc         1 NTU       0.040450
     54 H131         3.4840    11.8620    13.0350 hc         1 NTU       0.068200
     55 H132         3.0510    13.1250    11.8880 hc         1 NTU       0.068200
     56 H141         5.1610    14.3020    12.3890 h1         1 NTU       0.097450
     57 H142         4.1850    14.0670    13.8470 h1         1 NTU       0.097450
     58 H4'1         5.7570    16.4810    16.3640 h1         1 NTU       0.086867
     59 H4'2         5.8090    14.7360    16.6480 h1         1 NTU       0.086867
     60 H4'3         7.3080    15.6750    16.6340 h1         1 NTU       0.086867
     61 HN41         8.4950    13.8940    15.0910 hn         1 NTU       0.468800
     62 HN42         7.5950    12.8420    15.9600 hn         1 NTU       0.468800
     63 H23          0.7470    -0.8550     2.7650 hn         1 NTU       0.468800
     64 H43          8.2740    12.3630    14.5550 hn         1 NTU       0.468800
@<TRIPOS>BOND
     1     1     2 1
     2     1    25 1
     3     1    26 1
     4     1    27 1
     5     2     5 1
     6     3     5 2
     7     3     6 1
     8     4     5 1
     9     4    28 1
    10     4    29 1
    11     6     7 1
    12     6    30 1
    13     6    31 1
    14     7     8 1
    15     7    32 1
    16     7    33 1
    17     8     9 1
    18     8    34 1
    19     8    35 1
    20     9    10 1
    21     9    36 1
    22     9    37 1
    23    10    11 1
    24    10    38 1
    25    10    39 1
    26    11    12 1
    27    11    40 1
    28    11    41 1
    29    12    13 1
    30    12    42 1
    31    12    43 1
    32    13    14 1
    33    13    44 1
    34    13    45 1
    35    14    15 1
    36    14    46 1
    37    14    47 1
    38    15    16 1
    39    15    48 1
    40    15    49 1
    41    16    17 1
    42    16    50 1
    43    16    51 1
    44    17    18 1
    45    17    52 1
    46    17    53 1
    47    18    19 1
    48    18    54 1
    49    18    55 1
    50    19    22 1
    51    19    56 1
    52    19    57 1
    53    20    21 1
    54    20    58 1
    55    20    59 1
    56    20    60 1
    57    21    24 1
    58    22    24 2
    59    23    24 1
    60    23    61 1
    61    23    62 1
    62    63     4 1
    63    64    23 1
@<TRIPOS>SUBSTRUCTURE
     1 NTU         1 TEMP              0 ****  ****    0 ROOT
