@<TRIPOS>MOLECULE
NTX
   75    78     1     0     0
SMALL
bcc


@<TRIPOS>ATOM
      1 N1           0.0000     0.0000     0.0000 ns         1 NTX      -0.199900
      2 N3          11.8430     2.4800    -3.0140 nz         1 NTX       0.155900
      3 C4           4.1710     0.0120    -2.4840 ca         1 NTX       0.189100
      4 C5           3.4830     0.0060    -1.2830 ca         1 NTX      -0.134000
      5 C6           2.0870     0.0060    -1.2800 ca         1 NTX      -0.077600
      6 C7           1.3480     0.0000     0.0000 c          1 NTX       0.595700
      7 C8          -0.7320     0.0000     1.2690 c3         1 NTX       0.022700
      8 C10          8.3550    -1.1840    -3.4860 ca         1 NTX      -0.014500
      9 C13          0.0190    -1.1880    -8.9090 ca         1 NTX      -0.064000
     10 C15          0.0130     1.2130    -8.9130 ca         1 NTX      -0.216400
     11 C17          1.2780     0.0170    -7.2600 ca         1 NTX      -0.099800
     12 C20          9.7370     1.2080    -3.2930 ca         1 NTX      -0.216400
     13 C21         10.4210    -0.0050    -3.2110 ca         1 NTX      -0.082500
     14 C22          9.7260    -1.1940    -3.3080 ca         1 NTX      -0.064000
     15 C24         -1.6380     1.4360     3.1020 c3         1 NTX      -0.027900
     16 C26         -2.8870    -0.6040     2.3810 c3         1 NTX      -0.027900
     17 C28         10.4760     2.4860    -3.1910 ce         1 NTX       0.225800
     18 O1           1.9550    -0.0050     1.0530 o          1 NTX      -0.622100
     19 C23         -0.8720     1.4360     1.7770 c3         1 NTX      -0.037400
     20 C25         -3.0270     0.8330     2.8890 c3         1 NTX      -0.086500
     21 N4          -3.7620     0.8330     4.1610 nz         1 NTX      -0.010600
     22 C27         -2.1220    -0.6030     1.0560 c3         1 NTX      -0.037400
     23 C9           6.1760     0.0170    -3.7630 c3         1 NTX       0.262200
     24 C18          7.6700     0.0160    -3.5680 ca         1 NTX      -0.099800
     25 N2           9.8350     3.6170    -3.2670 n2         1 NTX      -0.468100
     26 C19          8.3540     1.2100    -3.4730 ca         1 NTX      -0.017000
     27 C3           3.4760     0.0130    -3.6840 ca         1 NTX      -0.302000
     28 C2           2.0880     0.0120    -3.6870 ca         1 NTX       0.189100
     29 C1           1.3920     0.0120    -2.4900 ca         1 NTX      -0.134000
     30 O3           1.4120     0.0140    -4.8650 os         1 NTX      -0.297900
     31 C11          2.1930     0.0150    -6.0620 c3         1 NTX       0.262200
     32 C16          0.8600     1.2140    -7.8050 ca         1 NTX      -0.017000
     33 N5          -1.2760     2.4900   -10.5980 nz         1 NTX       0.155900
     34 N6          -0.0470     3.6230    -8.9870 n2         1 NTX      -0.468100
     35 C14         -0.4060     0.0020    -9.4630 ca         1 NTX      -0.082500
     36 C12          0.8590    -1.1810    -7.8090 ca         1 NTX      -0.014500
     37 H1          -0.4450     0.2230    -0.8680 hn         1 NTX       0.183500
     38 H2          12.0360     1.8310    -2.2770 hn         1 NTX       0.227467
     39 H3          12.3800     2.2510    -3.8270 hn         1 NTX       0.227467
     40 H4           3.9810    -0.3870    -0.4050 ha         1 NTX       0.133000
     41 H5          -0.1750    -0.5740     1.9990 h1         1 NTX       0.074700
     42 H6           7.8210    -2.1230    -3.5640 ha         1 NTX       0.127500
     43 H7          -0.3060    -2.1290    -9.3350 ha         1 NTX       0.133000
     44 H8          11.5000    -0.0330    -3.1230 ha         1 NTX       0.090000
     45 H9          10.2290    -2.1490    -3.2270 ha         1 NTX       0.133000
     46 H10         -1.7340     2.4520     3.4650 hc         1 NTX       0.040200
     47 H11         -1.0990     0.8430     3.8310 hc         1 NTX       0.040200
     48 H12         -2.3400    -1.2100     3.0930 hc         1 NTX       0.040200
     49 H13         -3.8730    -1.0250     2.2270 hc         1 NTX       0.040200
     50 H14         -1.4240     2.0460     1.0720 hc         1 NTX       0.042700
     51 H15          0.1130     1.8570     1.9370 hc         1 NTX       0.042700
     52 H16         -3.5540     1.3690     2.1090 hx         1 NTX       0.097700
     53 H17         -3.2260     1.2560     4.8930 hn         1 NTX       0.258800
     54 H18         -4.3010     1.4080     3.5440 hn         1 NTX       0.258800
     55 H20         -2.6420    -0.1500     0.2200 hc         1 NTX       0.042700
     56 H21         -1.9540    -1.6540     0.8560 hc         1 NTX       0.042700
     57 H22          5.9000     0.9060    -4.3170 h1         1 NTX       0.011700
     58 H23          5.9040    -0.8640    -4.3300 h1         1 NTX       0.011700
     59 H24         10.3690     4.4570    -3.1640 hn         1 NTX       0.354900
     60 H25          7.8550     2.1700    -3.5310 ha         1 NTX       0.122500
     61 H26          4.0170     0.0310    -4.6230 ha         1 NTX       0.134000
     62 H27          0.3110    -0.0480    -2.4630 ha         1 NTX       0.133000
     63 H28          2.8330    -0.8540    -6.1540 h1         1 NTX       0.011700
     64 H29          2.7720     0.9310    -6.0520 h1         1 NTX       0.011700
     65 H30          1.1810     2.1460    -7.3570 ha         1 NTX       0.122500
     66 H31         -1.9590     1.7680   -10.4820 hn         1 NTX       0.227467
     67 H32         -0.7960     2.3300   -11.4610 hn         1 NTX       0.227467
     68 H33          0.5540     3.5960    -8.1870 hn         1 NTX       0.354900
     69 H34         -1.0610     0.0090   -10.3250 ha         1 NTX       0.090000
     70 H35          1.1980    -2.1200    -7.3880 ha         1 NTX       0.127500
     71 H331        12.0770     3.3970    -2.6880 hn         1 NTX       0.227467
     72 H43         -4.2880     0.0010     4.3420 hn         1 NTX       0.258800
     73 H53         -1.7340     3.3760   -10.6830 hn         1 NTX       0.227467
     74 O2           5.5310     0.0100    -2.4870 os         1 NTX      -0.297900
     75 C29         -0.4400     2.4940    -9.5040 ce         1 NTX       0.225800
@<TRIPOS>BOND
     1     1     6 1   
     2     1     7 1   
     3     1    37 1   
     4     2    17 1   
     5     2    38 1   
     6     2    39 1   
     7     2    71 1   
     8     3     4 ar  
     9     3    27 ar  
    10     3    74 1   
    11     4     5 ar  
    12     4    40 1   
    13     5     6 1   
    14     5    29 ar  
    15     6    18 2   
    16     7    19 1   
    17     7    22 1   
    18     7    41 1   
    19     8    14 ar  
    20     8    24 ar  
    21     8    42 1   
    22     9    35 ar  
    23     9    36 ar  
    24     9    43 1   
    25    10    32 ar  
    26    10    35 ar  
    27    10    75 1   
    28    11    31 1   
    29    11    32 ar  
    30    11    36 ar  
    31    12    13 ar  
    32    12    17 1   
    33    12    26 ar  
    34    13    14 ar  
    35    13    44 1   
    36    14    45 1   
    37    15    19 1   
    38    15    20 1   
    39    15    46 1   
    40    15    47 1   
    41    16    20 1   
    42    16    22 1   
    43    16    48 1   
    44    16    49 1   
    45    17    25 2   
    46    19    50 1   
    47    19    51 1   
    48    20    21 1   
    49    20    52 1   
    50    21    53 1   
    51    21    54 1   
    52    21    72 1   
    53    22    55 1   
    54    22    56 1   
    55    23    24 1   
    56    23    57 1   
    57    23    58 1   
    58    23    74 1   
    59    24    26 ar  
    60    25    59 1   
    61    26    60 1   
    62    27    28 ar  
    63    27    61 1   
    64    28    29 ar  
    65    28    30 1   
    66    29    62 1   
    67    30    31 1   
    68    31    63 1   
    69    31    64 1   
    70    32    65 1   
    71    33    66 1   
    72    33    67 1   
    73    33    73 1   
    74    33    75 1   
    75    34    68 1   
    76    34    75 2   
    77    35    69 1   
    78    36    70 1   
@<TRIPOS>SUBSTRUCTURE
     1 NTX         1 TEMP              0 ****  ****    0 ROOT
