@<TRIPOS>MOLECULE
molecule
   75    78     1     0     0
SMALL
bcc


@<TRIPOS>ATOM
      1 N1           0.0000     0.0000     0.0000 ns         1 NTX      -0.577900
      2 N3          11.8430     2.4800    -3.0140 nz         1 NTX      -0.775600
      3 C4           4.1710     0.0120    -2.4840 ca         1 NTX       0.170600
      4 C5           3.4830     0.0060    -1.2830 ca         1 NTX      -0.144500
      5 C6           2.0870     0.0060    -1.2800 ca         1 NTX      -0.074600
      6 C7           1.3480     0.0000     0.0000 c          1 NTX       0.676700
      7 C8          -0.7320     0.0000     1.2690 c3         1 NTX       0.113700
      8 C10          8.3550    -1.1840    -3.4860 ca         1 NTX      -0.048500
      9 C13          0.0190    -1.1880    -8.9090 ca         1 NTX      -0.098500
     10 C15          0.0130     1.2130    -8.9130 ca         1 NTX      -0.216400
     11 C17          1.2780     0.0170    -7.2600 ca         1 NTX      -0.085300
     12 C20          9.7370     1.2080    -3.2930 ca         1 NTX      -0.216400
     13 C21         10.4210    -0.0050    -3.2110 ca         1 NTX      -0.106000
     14 C22          9.7260    -1.1940    -3.3080 ca         1 NTX      -0.098500
     15 C24         -1.6380     1.4360     3.1020 c3         1 NTX      -0.102400
     16 C26         -2.8870    -0.6040     2.3810 c3         1 NTX      -0.102400
     17 C28         10.4760     2.4860    -3.1910 ce         1 NTX       0.536300
     18 O1           1.9550    -0.0050     1.0530 o          1 NTX      -0.582100
     19 C23         -0.8720     1.4360     1.7770 c3         1 NTX      -0.087400
     20 C25         -3.0270     0.8330     2.8890 c3         1 NTX       0.073500
     21 N4          -3.7620     0.8330     4.1610 nz         1 NTX      -0.891600
     22 C27         -2.1220    -0.6030     1.0560 c3         1 NTX      -0.087400
     23 C9           6.1760     0.0170    -3.7630 c3         1 NTX       0.185700
     24 C18          7.6700     0.0160    -3.5680 ca         1 NTX      -0.085300
     25 N2           9.8350     3.6170    -3.2670 n2         1 NTX      -0.694100
     26 C19          8.3540     1.2100    -3.4730 ca         1 NTX      -0.044000
     27 C3           3.4760     0.0130    -3.6840 ca         1 NTX      -0.295000
     28 C2           2.0880     0.0120    -3.6870 ca         1 NTX       0.170600
     29 C1           1.3920     0.0120    -2.4900 ca         1 NTX      -0.144500
     30 O3           1.4120     0.0140    -4.8650 os         1 NTX      -0.318900
     31 C11          2.1930     0.0150    -6.0620 c3         1 NTX       0.185700
     32 C16          0.8600     1.2140    -7.8050 ca         1 NTX      -0.044000
     33 N5          -1.2760     2.4900   -10.5980 nz         1 NTX      -0.775600
     34 N6          -0.0470     3.6230    -8.9870 n2         1 NTX      -0.694100
     35 C14         -0.4060     0.0020    -9.4630 ca         1 NTX      -0.106000
     36 C12          0.8590    -1.1810    -7.8090 ca         1 NTX      -0.048500
     37 H1          -0.4770    -0.2060    -0.8550 hn         1 NTX       0.322500
     38 H2          12.1700     1.8820    -3.7470 hn         1 NTX       0.471967
     39 H3          12.2010     3.4080    -3.1220 hn         1 NTX       0.471967
     40 H4           4.0270     0.0860    -0.3500 ha         1 NTX       0.160500
     41 H5          -0.2180    -0.5650     2.0370 h1         1 NTX       0.086700
     42 H6           7.8070    -2.1150    -3.5650 ha         1 NTX       0.165000
     43 H7          -0.3060    -2.1290    -9.3350 ha         1 NTX       0.170000
     44 H8          11.4900     0.0170    -3.0390 ha         1 NTX       0.117500
     45 H9          10.2500    -2.1400    -3.2520 ha         1 NTX       0.170000
     46 H10         -1.1120     0.8760     3.8660 hc         1 NTX       0.076700
     47 H11         -1.7700     2.4630     3.4200 hc         1 NTX       0.076700
     48 H12         -3.8680    -1.0380     2.2270 hc         1 NTX       0.076700
     49 H13         -2.3250    -1.1830     3.1040 hc         1 NTX       0.076700
     50 H14          0.0690     1.9150     2.0180 hc         1 NTX       0.074450
     51 H15         -1.4240     1.9230     0.9820 hc         1 NTX       0.074450
     52 H16         -3.5620     1.4150     2.1480 hx         1 NTX       0.112700
     53 H17         -4.2290    -0.0240     4.3800 hn         1 NTX       0.489133
     54 H18         -4.2230     1.3550     3.4420 hn         1 NTX       0.489133
     55 H20         -2.0870    -1.5890     0.6080 hc         1 NTX       0.074450
     56 H21         -2.6570     0.0370     0.3640 hc         1 NTX       0.074450
     57 H22          5.8680    -0.8420    -4.3450 h1         1 NTX       0.050450
     58 H23          5.9100     0.9190    -4.3010 h1         1 NTX       0.050450
     59 H24          8.8460     3.5160    -3.3840 hn         1 NTX       0.455900
     60 H25          7.8170     2.1510    -3.5180 ha         1 NTX       0.154500
     61 H26          4.0170     0.0180    -4.6230 ha         1 NTX       0.139000
     62 H27          0.3110     0.0710    -2.4860 ha         1 NTX       0.160500
     63 H28          2.7700     0.9310    -6.1150 h1         1 NTX       0.050450
     64 H29          2.8610    -0.8380    -6.0670 h1         1 NTX       0.050450
     65 H30          1.3220     2.1440    -7.4990 ha         1 NTX       0.154500
     66 H31         -0.9470     1.8310   -11.2760 hn         1 NTX       0.471967
     67 H32         -1.2400     3.3740   -11.0670 hn         1 NTX       0.471967
     68 H33         -0.3280     4.5110    -9.3530 hn         1 NTX       0.455900
     69 H34         -1.0620    -0.0040   -10.3250 ha         1 NTX       0.117500
     70 H35          1.1670    -2.1100    -7.3440 ha         1 NTX       0.165000
     71 H331        12.2210     2.1430    -2.1510 hn         1 NTX       0.471967
     72 H43         -3.3240     1.3120     4.9230 hn         1 NTX       0.489133
     73 H53         -2.2300     2.3550   -10.3280 hn         1 NTX       0.471967
     74 O2           5.5310     0.0100    -2.4870 os         1 NTX      -0.318900
     75 C29         -0.4400     2.4940    -9.5040 ce         1 NTX       0.536300
@<TRIPOS>BOND
     1    15    20 1
     2    15    19 1
     3    21    20 1
     4    16    20 1
     5    16    22 1
     6    18     6 2
     7    19     7 1
     8     7    22 1
     9     7     1 1
    10     9    36 ar
    11     9    35 ar
    12     6     1 1
    13     6     5 1
    14    36    11 ar
    15    35    10 ar
    16    29     5 ar
    17    29    28 ar
    18     5     4 ar
    19    30    28 1
    20    30    31 1
    21    28    27 ar
    22    11    31 1
    23    11    32 ar
    24     4     3 ar
    25    10    32 ar
    26    10    75 1
    27    34    75 2
    28    27     3 ar
    29     3    74 1
    30    75    33 1
    31    74    23 1
    32    23    24 1
    33     8    24 ar
    34     8    14 ar
    35    24    26 ar
    36    14    13 ar
    37    26    12 ar
    38    13    12 ar
    39    12    17 1
    40    17    25 2
    41    17     2 1
    42     1    37 1
    43     2    38 1
    44     2    39 1
    45     4    40 1
    46     7    41 1
    47     8    42 1
    48     9    43 1
    49    13    44 1
    50    14    45 1
    51    15    46 1
    52    15    47 1
    53    16    48 1
    54    16    49 1
    55    19    50 1
    56    19    51 1
    57    20    52 1
    58    21    53 1
    59    21    54 1
    60    22    55 1
    61    22    56 1
    62    23    57 1
    63    23    58 1
    64    25    59 1
    65    26    60 1
    66    27    61 1
    67    29    62 1
    68    31    63 1
    69    31    64 1
    70    32    65 1
    71    33    66 1
    72    33    67 1
    73    34    68 1
    74    35    69 1
    75    36    70 1
    76    71     2 1
    77    72    21 1
    78    73    33 1
@<TRIPOS>SUBSTRUCTURE
     1 NTX         1 TEMP              0 ****  ****    0 ROOT
