@<TRIPOS>MOLECULE
NTZ
   24    25     1     0     0
SMALL
bcc


@<TRIPOS>ATOM
      1 C1          0.0800    0.0150   -0.0090 cc        1 NTZ      0.337800
      2 C2          1.5730    0.0290    0.0730 c3        1 NTZ      0.096800
      3 C3          2.0150    0.0870    1.5500 c3        1 NTZ      0.104100
      4 C4          1.2100    1.1440    2.3270 c3        1 NTZ      0.141100
      5 C5         -0.2980    0.7800    2.3830 c3        1 NTZ      0.016000
      6 C6         -1.0750    1.9660    2.9940 c3        1 NTZ      0.132400
      7 N1         -0.7650    0.3900    1.0570 na        1 NTZ     -0.061400
      8 N17        -2.0350    0.2870    0.6210 nc        1 NTZ     -0.191800
      9 N18        -1.9940   -0.1190   -0.5960 nd        1 NTZ     -0.042000
     10 N21        -0.7530   -0.3040   -1.0440 nd        1 NTZ     -0.368000
     11 O2          2.1510   -1.1480   -0.4560 oh        1 NTZ     -0.589800
     12 O3          3.3700    0.4920    1.6320 oh        1 NTZ     -0.603800
     13 O4          1.6360    1.1880    3.6770 oh        1 NTZ     -0.589800
     14 O6         -2.3080    1.5500    3.5280 oh        1 NTZ     -0.586800
     15 H2          1.9580    0.9320   -0.4850 h1        1 NTZ      0.081700
     16 H3          1.8870   -0.9270    2.0230 h1        1 NTZ      0.080700
     17 H4          1.3550    2.1550    1.8520 h1        1 NTZ      0.063700
     18 H5         -0.4330   -0.1110    3.0700 h1        1 NTZ      0.110700
     19 H61        -0.4860    2.3330    3.8820 h1        1 NTZ      0.071700
     20 H62        -1.2050    2.7930    2.2500 h1        1 NTZ      0.071700
     21 HO2         1.8450   -1.2440   -1.3690 ho        1 NTZ      0.436000
     22 HO3         3.8900   -0.1900    1.1850 ho        1 NTZ      0.433000
     23 HO4         2.5990    1.2920    3.6610 ho        1 NTZ      0.436000
     24 HO6        -2.9200    1.3960    2.7980 ho        1 NTZ      0.418000
@<TRIPOS>BOND
     1    1    2 1   
     2    1    7 1   
     3    1   10 2   
     4    2    3 1   
     5    2   11 1   
     6    2   15 1   
     7    3    4 1   
     8    3   12 1   
     9    3   16 1   
    10    4    5 1   
    11    4   13 1   
    12    4   17 1   
    13    5    6 1   
    14    5    7 1   
    15    5   18 1   
    16    6   14 1   
    17    6   19 1   
    18    6   20 1   
    19    7    8 1   
    20    8    9 2   
    21    9   10 1   
    22   11   21 1   
    23   12   22 1   
    24   13   23 1   
    25   14   24 1   
@<TRIPOS>SUBSTRUCTURE
     1 NTZ         1 TEMP              0 ****  ****    0 ROOT
