@<TRIPOS>MOLECULE
molecule
   24    25     1     0     0
SMALL
bcc


@<TRIPOS>ATOM
      1 C1           0.0000     0.0000     0.0000 cc         1 NTZ       0.305800
      2 C2           1.5080     0.0000     0.0000 c3         1 NTZ       0.124800
      3 C3           1.9860     0.0000     1.4580 c3         1 NTZ       0.119100
      4 C4           1.2300     1.0810     2.2360 c3         1 NTZ       0.129100
      5 C5          -0.2380     0.6750     2.3850 c3         1 NTZ       0.062000
      6 C6          -1.0430     1.8500     2.9430 c3         1 NTZ       0.134400
      7 N1          -0.7640     0.3000     1.0710 na         1 NTZ      -0.005400
      8 N17         -1.9880     0.1960     0.7020 nc         1 NTZ      -0.181800
      9 N18         -2.0180    -0.1540    -0.5390 nd         1 NTZ      -0.049000
     10 N21         -0.8110    -0.2760    -0.9810 nd         1 NTZ      -0.359000
     11 O2           1.9900    -1.1680    -0.6660 oh         1 NTZ      -0.576800
     12 O3           3.3880     0.2720     1.5010 oh         1 NTZ      -0.596800
     13 O4           1.8170     1.2350     3.5290 oh         1 NTZ      -0.587800
     14 O6          -2.4130     1.4700     3.0750 oh         1 NTZ      -0.581800
     15 H2           1.8710     0.8890    -0.5020 h1         1 NTZ       0.071700
     16 H3           1.7870    -0.9680     1.9010 h1         1 NTZ       0.071700
     17 H4           1.2890     2.0180     1.6950 h1         1 NTZ       0.055700
     18 H5          -0.3110    -0.1720     3.0570 h1         1 NTZ       0.106700
     19 H61         -0.6500     2.1270     3.9140 h1         1 NTZ       0.040200
     20 H62         -0.9650     2.6930     2.2680 h1         1 NTZ       0.040200
     21 HO2          2.3850    -0.9210    -1.4870 ho         1 NTZ       0.421000
     22 HO3          3.8470    -0.4920     1.8080 ho         1 NTZ       0.423000
     23 HO4          2.3120     2.0360     3.5560 ho         1 NTZ       0.423000
     24 HO6         -2.8510     2.0700     3.6570 ho         1 NTZ       0.410000
@<TRIPOS>BOND
     1     1     2 1
     2     1     7 1
     3     1    10 2
     4     2     3 1
     5     2    11 1
     6     2    15 1
     7     3     4 1
     8     3    12 1
     9     3    16 1
    10     4     5 1
    11     4    13 1
    12     4    17 1
    13     5     6 1
    14     5     7 1
    15     5    18 1
    16     6    14 1
    17     6    19 1
    18     6    20 1
    19     7     8 1
    20     8     9 2
    21     9    10 1
    22    11    21 1
    23    12    22 1
    24    13    23 1
    25    14    24 1
@<TRIPOS>SUBSTRUCTURE
     1 NTZ         1 TEMP              0 ****  ****    0 ROOT
