@<TRIPOS>MOLECULE
NU1
   21    22     1     0     0
SMALL
bcc


@<TRIPOS>ATOM
      1 C5         -0.0700   -0.0600   -0.0730 ca        1 NU1      0.143100
      2 O5         -0.8740   -0.1000    1.0390 oh        1 NU1     -0.496100
      3 C4A         1.3520   -0.0500   -0.0250 ca        1 NU1      0.102400
      4 N4          2.0220   -0.0810    1.2040 nc        1 NU1     -0.639100
      5 C3          3.3420   -0.0700    1.2020 cd        1 NU1      0.494900
      6 C9          4.0980   -0.1020    2.5100 c3        1 NU1     -0.142400
      7 N2          4.1240   -0.0280    0.0390 n         1 NU1     -0.499400
      8 C1          3.5290    0.0040   -1.2320 c         1 NU1      0.708100
      9 O1          4.2620    0.0410   -2.2360 o         1 NU1     -0.619500
     10 C8A         2.0530   -0.0070   -1.2590 ca        1 NU1     -0.150600
     11 C8          1.3730    0.0240   -2.4800 ca        1 NU1     -0.097000
     12 C7         -0.0170    0.0130   -2.4960 ca        1 NU1     -0.116000
     13 C6         -0.7390   -0.0290   -1.3040 ca        1 NU1     -0.133000
     14 HO5        -0.3190   -0.1180    1.8330 ho        1 NU1      0.444000
     15 H91         3.3940   -0.1310    3.3780 hc        1 NU1      0.068700
     16 H92         4.7370    0.8110    2.5990 hc        1 NU1      0.068700
     17 H93         4.7470   -1.0120    2.5470 hc        1 NU1      0.068700
     18 HN2         5.1160   -0.0220    0.1100 hn        1 NU1      0.336500
     19 H8          1.9540    0.0560   -3.4160 ha        1 NU1      0.161000
     20 H7         -0.5560    0.0370   -3.4550 ha        1 NU1      0.143000
     21 H6         -1.8400   -0.0380   -1.3100 ha        1 NU1      0.156000
@<TRIPOS>BOND
     1    1    2 1
     2    1    3 ar
     3    1   13 ar
     4    2   14 1
     5    3    4 1
     6    3   10 ar
     7    4    5 2
     8    5    6 1
     9    5    7 1
    10    6   15 1
    11    6   16 1
    12    6   17 1
    13    7    8 1
    14    7   18 1
    15    8    9 2
    16    8   10 1
    17   10   11 ar
    18   11   12 ar
    19   11   19 1
    20   12   13 ar
    21   12   20 1
    22   13   21 1
@<TRIPOS>SUBSTRUCTURE
     1 NU1         1 TEMP              0 ****  ****    0 ROOT
