@<TRIPOS>MOLECULE
molecule
   31    33     1     0     0
SMALL
bcc


@<TRIPOS>ATOM
      1 C            0.0000     0.0000     0.0000 c          1 NU3       0.496700
      2 N            1.3480     0.0000     0.0000 nz         1 NU3      -0.678400
      3 O           -0.6080     0.0000     1.0530 o          1 NU3      -0.394100
      4 C1          -0.7360     0.0060    -1.2750 ca         1 NU3      -0.184600
      5 N1          -4.1780     0.0090    -2.2050 na         1 NU3      -0.252300
      6 O1          -9.0830    -0.0100     2.0450 oh         1 NU3      -0.513100
      7 C2          -0.0450     0.0110    -2.4850 ca         1 NU3      -0.098000
      8 N2          -3.0770    -0.0120    -0.3100 nc         1 NU3      -0.614100
      9 C3          -0.7350     0.0170    -3.6840 ca         1 NU3      -0.132000
     10 C4          -2.1160     0.0160    -3.7020 ca         1 NU3      -0.031000
     11 C5          -2.8290     0.0110    -2.5130 ca         1 NU3      -0.105200
     12 C6          -4.2780     0.0030    -0.8410 cd         1 NU3       0.562400
     13 C7          -5.5440    -0.0020    -0.0810 ca         1 NU3      -0.162900
     14 C8          -5.5220    -0.0080     1.3160 ca         1 NU3      -0.070000
     15 C9          -6.7060    -0.0120     2.0220 ca         1 NU3      -0.155500
     16 C10         -7.9190    -0.0080     1.3450 ca         1 NU3       0.153100
     17 C11         -7.9450    -0.0010    -0.0430 ca         1 NU3      -0.155500
     18 C12         -6.7660     0.0080    -0.7560 ca         1 NU3      -0.070000
     19 C13         -2.1480    -0.0000    -1.2840 ca         1 NU3       0.187400
     20 HN           1.6810    -0.0050     0.9440 hn         1 NU3       0.472800
     21 HNA          1.6810     0.8200    -0.4680 hn         1 NU3       0.472800
     22 HN1         -4.9370     0.0200    -2.8570 hn         1 NU3       0.327700
     23 HO1         -9.3540    -0.9000     2.2010 ho         1 NU3       0.435000
     24 H2           1.0380     0.0120    -2.4870 ha         1 NU3       0.110000
     25 H3          -0.1860     0.0210    -4.6180 ha         1 NU3       0.163000
     26 H4          -2.6440     0.0210    -4.6480 ha         1 NU3       0.157000
     27 H8          -4.5760    -0.0110     1.8440 ha         1 NU3       0.144000
     28 H9          -6.6900    -0.0170     3.1050 ha         1 NU3       0.159000
     29 H11         -8.8930     0.0060    -0.5660 ha         1 NU3       0.159000
     30 H12         -6.7880     0.0130    -1.8390 ha         1 NU3       0.144000
     31 HN3          1.6810    -0.8150    -0.4760 hn         1 NU3       0.472800
@<TRIPOS>BOND
     1     1     2 1
     2     1     3 2
     3     1     4 1
     4     4     7 ar
     5     4    19 ar
     6     5    11 1
     7     5    12 1
     8     6    16 1
     9     7     9 ar
    10     8    12 2
    11     8    19 1
    12     9    10 ar
    13    10    11 ar
    14    11    19 ar
    15    12    13 1
    16    13    14 ar
    17    13    18 ar
    18    14    15 ar
    19    15    16 ar
    20    16    17 ar
    21    17    18 ar
    22     2    20 1
    23     2    21 1
    24     5    22 1
    25     6    23 1
    26     7    24 1
    27     9    25 1
    28    10    26 1
    29    14    27 1
    30    15    28 1
    31    17    29 1
    32    18    30 1
    33    31     2 1
@<TRIPOS>SUBSTRUCTURE
     1 NU3         1 TEMP              0 ****  ****    0 ROOT
