@<TRIPOS>MOLECULE
NU3
   31    33     1     0     0
SMALL
bcc


@<TRIPOS>ATOM
      1 C            0.0000     0.0000     0.0000 c          1 NU3       0.340700
      2 N            1.3480     0.0000     0.0000 nz         1 NU3       0.195600
      3 O           -0.6080     0.0000     1.0530 o          1 NU3      -0.406100
      4 C1          -0.7360     0.0060    -1.2750 ca         1 NU3      -0.202600
      5 N1          -4.1780     0.0090    -2.2050 na         1 NU3       0.285700
      6 O1          -9.0830    -0.0100     2.0450 oh         1 NU3      -0.494100
      7 C2          -0.0450     0.0110    -2.4850 ca         1 NU3      -0.060000
      8 N2          -3.0770    -0.0120    -0.3100 nc         1 NU3      -0.533100
      9 C3          -0.7350     0.0170    -3.6840 ca         1 NU3      -0.114000
     10 C4          -2.1160     0.0160    -3.7020 ca         1 NU3       0.032000
     11 C5          -2.8290     0.0110    -2.5130 ca         1 NU3      -0.295200
     12 C6          -4.2780     0.0030    -0.8410 cd         1 NU3       0.360400
     13 C7          -5.5440    -0.0020    -0.0810 ca         1 NU3      -0.175900
     14 C8          -5.5220    -0.0080     1.3160 ca         1 NU3      -0.041000
     15 C9          -6.7060    -0.0120     2.0220 ca         1 NU3      -0.138000
     16 C10         -7.9190    -0.0080     1.3450 ca         1 NU3       0.171100
     17 C11         -7.9450    -0.0010    -0.0430 ca         1 NU3      -0.138000
     18 C12         -6.7660     0.0080    -0.7560 ca         1 NU3      -0.041000
     19 C13         -2.1480    -0.0000    -1.2840 ca         1 NU3       0.163400
     20 HN           1.6810    -0.0050     0.9440 hn         1 NU3       0.242467
     21 HNA          1.6810     0.8200    -0.4680 hn         1 NU3       0.242467
     22 HN1         -4.9370     0.0200    -2.8570 hn         1 NU3       0.149700
     23 HO1         -9.3540    -0.9000     2.2010 ho         1 NU3       0.416000
     24 H2           1.0380     0.0120    -2.4870 ha         1 NU3       0.079000
     25 H3          -0.1860     0.0210    -4.6180 ha         1 NU3       0.129000
     26 H4          -2.6440     0.0210    -4.6480 ha         1 NU3       0.117000
     27 H8          -4.5760    -0.0110     1.8440 ha         1 NU3       0.110500
     28 H9          -6.6900    -0.0170     3.1050 ha         1 NU3       0.126500
     29 H11         -8.8930     0.0060    -0.5660 ha         1 NU3       0.126500
     30 H12         -6.7880     0.0130    -1.8390 ha         1 NU3       0.110500
     31 HN3          1.6810    -0.8150    -0.4760 hn         1 NU3       0.242467
@<TRIPOS>BOND
     1     1     2 1   
     2     1     3 2   
     3     1     4 1   
     4     2    20 1   
     5     2    21 1   
     6     2    31 1   
     7     4     7 ar  
     8     4    19 ar  
     9     5    11 1   
    10     5    12 1   
    11     5    22 1   
    12     6    16 1   
    13     6    23 1   
    14     7     9 ar  
    15     7    24 1   
    16     8    12 2   
    17     8    19 1   
    18     9    10 ar  
    19     9    25 1   
    20    10    11 ar  
    21    10    26 1   
    22    11    19 ar  
    23    12    13 1   
    24    13    14 ar  
    25    13    18 ar  
    26    14    15 ar  
    27    14    27 1   
    28    15    16 ar  
    29    15    28 1   
    30    16    17 ar  
    31    17    18 ar  
    32    17    29 1   
    33    18    30 1   
@<TRIPOS>SUBSTRUCTURE
     1 NU3         1 TEMP              0 ****  ****    0 ROOT
