@<TRIPOS>MOLECULE
molecule
   66    69     1     0     0
SMALL
bcc


@<TRIPOS>ATOM
      1 O2           0.0000     0.0000     0.0000 o          1 NU5      -0.618800
      2 S1           1.4220     0.0000     0.0000 sy         1 NU5       1.194300
      3 O3           2.1760     0.0000     1.2040 o          1 NU5      -0.618800
      4 C22          2.0900    -1.1750    -1.2080 c3         1 NU5      -0.210600
      5 C23          1.8260    -2.6040    -0.7310 c3         1 NU5       0.166800
      6 N6           2.3670    -3.5570    -1.7100 n7         1 NU5      -0.787200
      7 C24          2.0810    -4.9010    -1.1930 c3         1 NU5       0.143800
      8 C25          2.6220    -5.9480    -2.1690 c3         1 NU5      -0.082400
      9 C26          2.3240    -7.3500    -1.6310 c3         1 NU5       0.141400
     10 O4           2.8280    -8.3270    -2.5440 oh         1 NU5      -0.609800
     11 C19          1.8120     1.5670    -0.7060 ca         1 NU5      -0.321500
     12 C18          0.9160     2.1800    -1.5620 ca         1 NU5      -0.012000
     13 C17          1.2180     3.4090    -2.1160 ca         1 NU5      -0.174000
     14 C16          2.4240     4.0270    -1.8130 ca         1 NU5       0.220600
     15 C21          3.3220     3.4090    -0.9530 ca         1 NU5      -0.174000
     16 C20          3.0110     2.1830    -0.3970 ca         1 NU5      -0.012000
     17 N2           2.7340     5.2710    -2.3720 nu         1 NU5      -0.755300
     18 C2           2.3070     5.5790    -3.6540 ca         1 NU5       0.986900
     19 N1           1.7090     4.6390    -4.3760 nb         1 NU5      -0.875000
     20 C6           1.2790     4.8860    -5.6060 ca         1 NU5       0.768600
     21 C5           1.4750     6.1680    -6.1410 ca         1 NU5      -0.203200
     22 N7           1.1810     6.7600    -7.3240 nc         1 NU5      -0.550100
     23 C8           1.5920     7.9940    -7.3050 cd         1 NU5       0.405700
     24 N9           2.1760     8.2730    -6.1040 na         1 NU5      -0.362000
     25 C4           2.1180     7.1330    -5.3440 ca         1 NU5       0.500800
     26 N3           2.5130     6.8010    -4.1200 nb         1 NU5      -0.833000
     27 O6           0.6660     3.9200    -6.3300 os         1 NU5      -0.379100
     28 C9           0.6230     2.7510    -5.5090 c3         1 NU5       0.121400
     29 C10         -0.0610     1.6150    -6.2740 c3         1 NU5      -0.075700
     30 C15          0.0040     0.3320    -5.4450 c3         1 NU5      -0.074900
     31 C14         -0.6790    -0.8040    -6.2100 c3         1 NU5      -0.078400
     32 C13         -2.1410    -0.4370    -6.4670 c3         1 NU5      -0.081400
     33 C12         -2.2060     0.8480    -7.2960 c3         1 NU5      -0.078400
     34 C11         -1.5230     1.9830    -6.5320 c3         1 NU5      -0.074900
     35 H221         3.1570    -1.0200    -1.3100 h1         1 NU5       0.107200
     36 H222         1.6100    -1.0200    -2.1670 h1         1 NU5       0.107200
     37 H231         2.3060    -2.7590     0.2270 h1         1 NU5       0.046200
     38 H232         0.7590    -2.7590    -0.6290 h1         1 NU5       0.046200
     39 HN6          3.3580    -3.4320    -1.7850 hn         1 NU5       0.355800
     40 H241         2.5590    -5.0270    -0.2280 h1         1 NU5       0.036200
     41 H242         1.0110    -5.0270    -1.0840 h1         1 NU5       0.036200
     42 H251         2.1440    -5.8230    -3.1340 hc         1 NU5       0.061700
     43 H252         3.6920    -5.8230    -2.2780 hc         1 NU5       0.061700
     44 H261         2.8030    -7.4750    -0.6670 h1         1 NU5       0.019700
     45 H262         1.2540    -7.4750    -1.5220 h1         1 NU5       0.019700
     46 HO4          2.6450    -9.1900    -2.2130 ho         1 NU5       0.403000
     47 H18         -0.0250     1.6970    -1.7980 ha         1 NU5       0.152000
     48 H17          0.5160     3.8890    -2.7870 ha         1 NU5       0.151000
     49 H21          4.2630     3.8900    -0.7130 ha         1 NU5       0.151000
     50 H20          3.7110     1.6990     0.2740 ha         1 NU5       0.152000
     51 HN2          3.2340     5.9510    -1.8350 hn         1 NU5       0.473800
     52 H8           1.4860     8.6970    -8.1220 h5         1 NU5       0.081800
     53 HN9          2.5750     9.1490    -5.8280 hn         1 NU5       0.314700
     54 H91          0.0660     2.9650    -4.6060 h1         1 NU5       0.056200
     55 H92          1.6330     2.4550    -5.2500 h1         1 NU5       0.056200
     56 H10          0.4420     1.4570    -7.2200 hc         1 NU5       0.065700
     57 H151         1.0400     0.0720    -5.2640 hc         1 NU5       0.045450
     58 H152        -0.5040     0.4860    -4.5010 hc         1 NU5       0.045450
     59 H141        -0.6340    -1.7120    -5.6220 hc         1 NU5       0.043200
     60 H142        -0.1740    -0.9550    -7.1560 hc         1 NU5       0.043200
     61 H131        -2.6240    -1.2410    -7.0110 hc         1 NU5       0.041700
     62 H132        -2.6450    -0.2810    -5.5210 hc         1 NU5       0.041700
     63 H121        -3.2420     1.1080    -7.4760 hc         1 NU5       0.043200
     64 H122        -1.6990     0.6930    -8.2410 hc         1 NU5       0.043200
     65 H111        -1.5670     2.8910    -7.1210 hc         1 NU5       0.045450
     66 H112        -2.0280     2.1350    -5.5860 hc         1 NU5       0.045450
@<TRIPOS>BOND
     1     1     2 2
     2     2     3 2
     3     2     4 1
     4     2    11 1
     5     4     5 1
     6     4    35 1
     7     4    36 1
     8     5     6 1
     9     5    37 1
    10     5    38 1
    11     6     7 1
    12     6    39 1
    13     7     8 1
    14     7    40 1
    15     7    41 1
    16     8     9 1
    17     8    42 1
    18     8    43 1
    19     9    10 1
    20     9    44 1
    21     9    45 1
    22    10    46 1
    23    11    12 ar
    24    11    16 ar
    25    12    13 ar
    26    12    47 1
    27    13    14 ar
    28    13    48 1
    29    14    15 ar
    30    14    17 1
    31    15    16 ar
    32    15    49 1
    33    16    50 1
    34    17    18 1
    35    17    51 1
    36    18    19 ar
    37    18    26 ar
    38    19    20 ar
    39    20    21 ar
    40    20    27 1
    41    21    22 1
    42    21    25 ar
    43    22    23 2
    44    23    24 1
    45    23    52 1
    46    24    25 1
    47    24    53 1
    48    25    26 ar
    49    27    28 1
    50    28    29 1
    51    28    54 1
    52    28    55 1
    53    29    30 1
    54    29    34 1
    55    29    56 1
    56    30    31 1
    57    30    57 1
    58    30    58 1
    59    31    32 1
    60    31    59 1
    61    31    60 1
    62    32    33 1
    63    32    61 1
    64    32    62 1
    65    33    34 1
    66    33    63 1
    67    33    64 1
    68    34    65 1
    69    34    66 1
@<TRIPOS>SUBSTRUCTURE
     1 NU5         1 TEMP              0 ****  ****    0 ROOT
