@<TRIPOS>MOLECULE
NU6
   50    53     1     0     0
SMALL
bcc


@<TRIPOS>ATOM
      1 O01          0.0000     0.0000     0.0000 o          1 NU6      -0.437100
      2 C02          1.2150     0.0000     0.0000 c          1 NU6       0.358700
      3 N03          1.8900     0.0000     1.1670 nz         1 NU6       0.199600
      4 C04          1.9530    -0.0080    -1.2810 ca         1 NU6      -0.212600
      5 C05          3.3500    -0.0090    -1.2850 ca         1 NU6      -0.124000
      6 C06          4.0380    -0.0150    -2.4810 ca         1 NU6      -0.056000
      7 C07          3.3490    -0.0220    -3.6800 ca         1 NU6      -0.043000
      8 C08          1.9580    -0.0220    -3.6870 ca         1 NU6       0.034600
      9 N09          1.2650    -0.0280    -4.9020 nu         1 NU6      -0.293300
     10 C10          1.7910     0.6320    -6.0030 ca         1 NU6       0.725900
     11 N11          1.1750     0.5180    -7.1690 nb         1 NU6      -0.682000
     12 C12          1.6500     1.1360    -8.2450 ca         1 NU6       0.263800
     13 N13          1.2650     1.2220    -9.5590 na         1 NU6       0.183000
     14 C14          2.1690     2.0200   -10.1970 cc         1 NU6       0.233700
     15 N15          3.0750     2.4250    -9.3580 nd         1 NU6      -0.448100
     16 C16          2.8150     1.9140    -8.1300 ca         1 NU6      -0.223200
     17 C17          3.4330     2.0040    -6.8730 ca         1 NU6       0.766600
     18 O18          4.5580     2.7400    -6.7070 os         1 NU6      -0.383100
     19 C19          5.1210     2.7780    -5.3950 c3         1 NU6       0.208400
     20 C20          6.3780     3.6520    -5.4040 c3         1 NU6      -0.060700
     21 C21          5.9910     5.0990    -5.7210 c3         1 NU6      -0.020900
     22 C22          7.2470     5.9720    -5.7290 c3         1 NU6      -0.021900
     23 C23          7.9190     5.9130    -4.3560 c3         1 NU6      -0.025400
     24 C24          8.3060     4.4670    -4.0400 c3         1 NU6      -0.021900
     25 C25          7.0500     3.5930    -4.0310 c3         1 NU6      -0.020900
     26 N26          2.8890     1.3590    -5.8500 nb         1 NU6      -0.804000
     27 C27          1.2580    -0.0190    -2.4900 ca         1 NU6      -0.041000
     28 H1           2.4630    -0.8190     1.2210 hn         1 NU6       0.246467
     29 H2           2.4670     0.8160     1.2180 hn         1 NU6       0.246467
     30 H3           3.8940    -0.0040    -0.3480 ha         1 NU6       0.079000
     31 H4           5.1210    -0.0160    -2.4820 ha         1 NU6       0.124000
     32 H5           3.8930    -0.0270    -4.6160 ha         1 NU6       0.158000
     33 H6           0.4100    -0.5410    -4.9870 hn         1 NU6       0.305800
     34 H7           0.4680     0.7800    -9.9740 hn         1 NU6       0.141700
     35 H8           2.1350     2.2790   -11.2490 h5         1 NU6       0.041800
     36 H10          5.3830     1.7740    -5.0850 h1         1 NU6       0.003700
     37 H11          4.3980     3.1930    -4.7030 h1         1 NU6       0.003700
     38 H12          7.0680     3.2920    -6.1570 hc         1 NU6       0.046700
     39 H13          5.5180     5.1400    -6.6940 hc         1 NU6       0.014950
     40 H14          5.3050     5.4610    -4.9640 hc         1 NU6       0.014950
     41 H15          7.9340     5.6070    -6.4820 hc         1 NU6       0.018200
     42 H16          6.9710     6.9960    -5.9500 hc         1 NU6       0.018200
     43 H17          8.8100     6.5300    -4.3650 hc         1 NU6       0.015700
     44 H18          7.2300     6.2750    -3.6020 hc         1 NU6       0.015700
     45 H19          8.7800     4.4260    -3.0660 hc         1 NU6       0.018200
     46 H20          8.9920     4.1040    -4.7960 hc         1 NU6       0.018200
     47 H21          6.3620     3.9580    -3.2770 hc         1 NU6       0.014950
     48 H22          7.3260     2.5690    -3.8090 hc         1 NU6       0.014950
     49 H23          0.1750    -0.0190    -2.4940 ha         1 NU6       0.136000
     50 H033         1.2400     0.0170     1.9280 hn         1 NU6       0.246467
@<TRIPOS>BOND
     1     1     2 2   
     2     2     3 1   
     3     2     4 1   
     4     3    28 1   
     5     3    29 1   
     6     3    50 1   
     7     4     5 ar  
     8     4    27 ar  
     9     5     6 ar  
    10     5    30 1   
    11     6     7 ar  
    12     6    31 1   
    13     7     8 ar  
    14     7    32 1   
    15     8     9 1   
    16     8    27 ar  
    17     9    10 1   
    18     9    33 1   
    19    10    11 ar  
    20    10    26 ar  
    21    11    12 ar  
    22    12    13 1   
    23    12    16 ar  
    24    13    14 1   
    25    13    34 1   
    26    14    15 2   
    27    14    35 1   
    28    15    16 1   
    29    16    17 ar  
    30    17    18 1   
    31    17    26 ar  
    32    18    19 1   
    33    19    20 1   
    34    19    36 1   
    35    19    37 1   
    36    20    21 1   
    37    20    25 1   
    38    20    38 1   
    39    21    22 1   
    40    21    39 1   
    41    21    40 1   
    42    22    23 1   
    43    22    41 1   
    44    22    42 1   
    45    23    24 1   
    46    23    43 1   
    47    23    44 1   
    48    24    25 1   
    49    24    45 1   
    50    24    46 1   
    51    25    47 1   
    52    25    48 1   
    53    27    49 1   
@<TRIPOS>SUBSTRUCTURE
     1 NU6         1 TEMP              0 ****  ****    0 ROOT
