@<TRIPOS>MOLECULE
NU7
   62    63     1     0     0
SMALL
bcc


@<TRIPOS>ATOM
      1 C1          2.3740   -1.4480   -0.9150 c3        1 NU7     -0.166000
      2 N2          2.4010   -0.1490   -1.4990 n2        1 NU7     -0.166000
      3 F01        14.2740    5.1740   -0.9420 f         1 NU7     -0.129333
      4 F03        13.5580    4.6710   -2.9420 f         1 NU7     -0.129333
      5 F04        13.8010    3.1020   -1.4430 f         1 NU7     -0.129333
      6 C05        11.9400    4.6130   -1.1580 c2        1 NU7     -0.077000
      7 N06        11.1710    5.6930   -1.1640 n2        1 NU7     -0.098000
      8 C07         9.9440    5.2250   -0.5950 c2        1 NU7     -0.050000
      9 N08        10.0350    3.9010   -0.2830 n2        1 NU7      0.037000
     10 O09        11.2380    3.5050   -0.6140 os        1 NU7     -0.031000
     11 C10         8.7800    6.0830   -0.3870 c2        1 NU7     -0.130000
     12 C11         8.5630    7.1770   -1.1680 c2        1 NU7     -0.024000
     13 C12         7.3760    8.0420   -0.9650 c3        1 NU7     -0.247000
     14 C13         6.3800    7.6210    0.0060 c1        1 NU7     -0.039000
     15 C14         6.5950    6.3680    0.7360 c3        1 NU7     -0.315000
     16 C15         7.9460    5.7790    0.7350 c1        1 NU7      0.004000
     17 C16         6.0860    6.4710    2.1610 c2        1 NU7      0.276000
     18 O17         4.8900    6.3740    2.4390 o         1 NU7     -0.339000
     19 N18         3.4770    8.7570    0.6900 n2        1 NU7     -0.292000
     20 C19         3.8640    9.6380   -0.1410 c2        1 NU7     -0.089000
     21 C20        -0.1850    2.1260   -0.0960 c2        1 NU7     -0.118000
     22 C21         0.3910    0.7620   -0.2840 c3        1 NU7     -0.145000
     23 C22         1.5610    0.7760   -1.2280 c2        1 NU7     -0.087000
     24 C24        -1.8990    1.8230   -1.8840 c3        1 NU7     -0.213000
     25 C25        -1.2210    2.5910   -0.8250 c2        1 NU7     -0.051000
     26 C26         0.4390    2.9380    0.9380 c2        1 NU7     -0.214000
     27 N27         0.4210    4.2690    1.0070 n2        1 NU7     -0.078000
     28 C28         1.1170    4.6930    2.1460 c2        1 NU7     -0.146000
     29 C29         1.6490    3.6350    2.9120 c2        1 NU7     -0.431000
     30 S30         1.3040    2.1810    2.2450 ss        1 NU7      0.665000
     31 C31         1.2660    6.0870    2.4640 c2        1 NU7      0.212000
     32 C32         1.9600    6.4410    3.7210 c3        1 NU7     -0.208000
     33 C33         1.9970    7.8740    4.0520 c2        1 NU7     -0.012000
     34 C34         1.5220    8.8230    3.2000 c2        1 NU7     -0.186000
     35 C35         0.9530    8.4380    1.9560 c2        1 NU7      0.144000
     36 C36         0.8020    7.0970    1.6190 c2        1 NU7     -0.206000
     37 H1          2.2430   -2.1970   -1.7440 h1        1 NU7      0.091667
     38 H1A         1.5690   -1.6200   -0.1510 h1        1 NU7      0.091667
     39 H1B         3.3730   -1.6330   -0.4330 h1        1 NU7      0.091667
     40 H11         6.8440    8.1930   -1.9550 hc        1 NU7      0.183500
     41 H12         9.2660    7.4840   -1.9640 ha        1 NU7      0.172000
     42 H13         7.7150    9.0820   -0.6570 hc        1 NU7      0.183500
     43 H15         5.9250    5.6120    0.1890 hc        1 NU7      0.224000
     44 HN18        6.8750    6.6170    2.9290 h4        1 NU7      0.137000
     45 H19         4.1420    8.0390    0.9080 hn        1 NU7      0.162000
     46 H19A        3.1700   10.4550   -0.4180 h4        1 NU7      0.109000
     47 H21         4.8560    9.6760   -0.6350 h4        1 NU7      0.109000
     48 H21A        0.7030    0.3340    0.7120 hc        1 NU7      0.107000
     49 H22        -0.4000    0.0730   -0.6940 hc        1 NU7      0.107000
     50 H22A        1.7020    1.7310   -1.7780 h4        1 NU7      0.150000
     51 H24        -2.5500    2.4900   -2.5020 hc        1 NU7      0.103000
     52 H24A       -1.1610    1.3250   -2.5620 hc        1 NU7      0.103000
     53 H25        -2.5450    1.0280   -1.4290 hc        1 NU7      0.103000
     54 H25A       -1.6210    3.6040   -0.6400 ha        1 NU7      0.143000
     55 H29         2.2290    3.7710    3.8270 h4        1 NU7      0.193000
     56 H32         1.5260    5.8600    4.5880 hc        1 NU7      0.201000
     57 H33         3.0470    6.0940    3.6220 hc        1 NU7      0.201000
     58 H34         2.4550    8.1440    5.0200 ha        1 NU7      0.168000
     59 H35         1.5850    9.8970    3.4460 ha        1 NU7      0.176000
     60 H36         0.6160    9.2230    1.2550 ha        1 NU7      0.175000
     61 H182        0.3220    6.8370    0.6570 ha        1 NU7      0.193000
     62 C02        13.3760    4.3900   -1.6150 c3        1 NU7      0.531000
@<TRIPOS>BOND
     1    1    2 1   
     2    1   37 1   
     3    1   38 1   
     4    1   39 1   
     5    2   23 1   
     6    3   62 1   
     7    4   62 1   
     8    5   62 1   
     9    6    7 1   
    10    6   10 1   
    11    6   62 1   
    12    7    8 1   
    13    8    9 1   
    14    8   11 1   
    15    9   10 1   
    16   11   12 1   
    17   11   16 1   
    18   12   13 1   
    19   12   41 1   
    20   13   14 1   
    21   13   40 1   
    22   13   42 1   
    23   14   15 1   
    24   15   16 1   
    25   15   17 1   
    26   15   43 1   
    27   17   18 1   
    28   17   44 1   
    29   19   20 1   
    30   19   45 1   
    31   20   46 1   
    32   20   47 1   
    33   21   22 1   
    34   21   25 1   
    35   21   26 1   
    36   22   23 1   
    37   22   48 1   
    38   22   49 1   
    39   23   50 1   
    40   24   25 1   
    41   24   51 1   
    42   24   52 1   
    43   24   53 1   
    44   25   54 1   
    45   26   27 1   
    46   26   30 1   
    47   27   28 1   
    48   28   29 1   
    49   28   31 1   
    50   29   30 1   
    51   29   55 1   
    52   31   32 1   
    53   31   36 1   
    54   32   33 1   
    55   32   56 1   
    56   32   57 1   
    57   33   34 1   
    58   33   58 1   
    59   34   35 1   
    60   34   59 1   
    61   35   36 1   
    62   35   60 1   
    63   36   61 1   
@<TRIPOS>SUBSTRUCTURE
     1 NU7         1 TEMP              0 ****  ****    0 ROOT
