@<TRIPOS>MOLECULE
NU9
   58    62     1     0     0
SMALL
bcc


@<TRIPOS>ATOM
      1 F01        -0.2750   -0.0840    0.2940 f         1 NU9     -0.195967
      2 C02         0.6900   -0.2300   -0.6650 c3        1 NU9      0.651600
      3 F03         1.6250   -1.0750   -0.1340 f         1 NU9     -0.195967
      4 F04         0.1020   -0.9110   -1.6930 f         1 NU9     -0.195967
      5 C05         1.2870    1.1060   -1.1010 cc        1 NU9      0.418700
      6 N06         1.9220    2.0510   -0.4220 nd        1 NU9     -0.611000
      7 C07         2.2170    3.0320   -1.4210 cd        1 NU9      0.559500
      8 N08         1.7470    2.6280   -2.6370 nc        1 NU9     -0.322300
      9 O09         1.1800    1.4640   -2.4730 os        1 NU9     -0.075100
     10 C10         2.9240    4.2770   -1.1380 ca        1 NU9     -0.119500
     11 C11         3.1190    4.6980    0.1860 ca        1 NU9     -0.020000
     12 C12         3.8000    5.8900    0.4450 ca        1 NU9     -0.130000
     13 C13         4.2810    6.6750   -0.5980 ca        1 NU9     -0.076000
     14 C14         4.0810    6.2610   -1.9230 ca        1 NU9     -0.210600
     15 C15         3.4140    5.0540   -2.1950 ca        1 NU9     -0.020000
     16 C16         4.5760    7.0100   -3.0820 c         1 NU9      0.571700
     17 O17         4.8750    6.5690   -4.1840 o         1 NU9     -0.425100
     18 N18         4.6950    8.5040   -2.8960 n4        1 NU9     -0.676800
     19 C19         5.2090    9.2130   -4.1000 c3        1 NU9      0.119800
     20 C20         5.3920   10.7340   -3.9130 c3        1 NU9     -0.077300
     21 C21         5.9030   11.2930   -5.2500 c3        1 NU9     -0.121400
     22 C22         4.8260   11.3140   -6.3230 c3        1 NU9      0.119400
     23 O23         3.6490   11.9810   -5.8890 os        1 NU9     -0.384600
     24 C24         3.0900   11.4160   -4.7130 c3        1 NU9      0.119400
     25 C25         4.0790   11.4380   -3.5590 c3        1 NU9     -0.121400
     26 C26         6.3990   11.0080   -2.8330 cc        1 NU9      0.299700
     27 N27         6.4000   10.3550   -1.6570 nd        1 NU9     -0.721000
     28 C28         7.4210   10.8340   -0.8510 cd        1 NU9      0.427800
     29 C29         8.1700   11.8570   -1.4490 cc        1 NU9     -0.263400
     30 S30         7.6100   12.1970   -2.9660 ss        1 NU9      0.089700
     31 C31         7.6710   10.3110    0.4890 ca        1 NU9     -0.147500
     32 C32         8.9920   10.1370    0.9260 ca        1 NU9     -0.109500
     33 C33         9.2430    9.6590    2.2110 ca        1 NU9     -0.127000
     34 C34         8.1830    9.3550    3.0660 ca        1 NU9     -0.105000
     35 C35         6.8680    9.5290    2.6340 ca        1 NU9     -0.127000
     36 C36         6.6090   10.0020    1.3490 ca        1 NU9     -0.109500
     37 H11         2.7440    4.0920    1.0310 ha        1 NU9      0.186000
     38 H12         3.9620    6.2070    1.4890 ha        1 NU9      0.169000
     39 H13         4.8350    7.5950   -0.3510 ha        1 NU9      0.146000
     40 H15         3.2880    4.7280   -3.2440 ha        1 NU9      0.183000
     41 HN18        3.7720    8.8760   -2.6480 hn        1 NU9      0.476800
     42 H19         6.2030    8.7490   -4.3670 hx        1 NU9      0.111700
     43 H19A        4.4880    9.0210   -4.9470 hx        1 NU9      0.111700
     44 H21         6.2550   12.3480   -5.0800 hc        1 NU9      0.072450
     45 H21A        6.7750   10.6910   -5.6140 hc        1 NU9      0.072450
     46 H22         4.5710   10.2730   -6.6570 h1        1 NU9      0.062700
     47 H22A        5.1660   11.9170   -7.2090 h1        1 NU9      0.062700
     48 H24         2.2050   12.0730   -4.4910 h1        1 NU9      0.062700
     49 H24A        2.7390   10.3700   -4.9210 h1        1 NU9      0.062700
     50 H25         3.6100   10.9950   -2.6450 hc        1 NU9      0.072450
     51 H25A        4.3140   12.5110   -3.3150 hc        1 NU9      0.072450
     52 H29         9.0060   12.3650   -0.9640 h4        1 NU9      0.207000
     53 H32         9.8290   10.3790    0.2550 ha        1 NU9      0.134000
     54 H33        10.2810    9.5240    2.5510 ha        1 NU9      0.144500
     55 H34         8.3840    8.9840    4.0830 ha        1 NU9      0.148000
     56 H35         6.0320    9.3020    3.3130 ha        1 NU9      0.144500
     57 H36         5.5700   10.1540    1.0200 ha        1 NU9      0.134000
     58 H182        5.3360    8.6980   -2.0970 hn        1 NU9      0.476800
@<TRIPOS>BOND
     1    1    2 1
     2    2    3 1
     3    2    4 1
     4    2    5 1
     5    5    6 2
     6    5    9 1
     7    6    7 1
     8    7    8 2
     9    7   10 1
    10    8    9 1
    11   10   11 ar
    12   10   15 ar
    13   11   12 ar
    14   11   37 1
    15   12   13 ar
    16   12   38 1
    17   13   14 ar
    18   13   39 1
    19   14   15 ar
    20   14   16 1
    21   15   40 1
    22   16   17 2
    23   16   18 1
    24   18   19 1
    25   18   41 1
    26   18   58 1
    27   19   20 1
    28   19   42 1
    29   19   43 1
    30   20   21 1
    31   20   25 1
    32   20   26 1
    33   21   22 1
    34   21   44 1
    35   21   45 1
    36   22   23 1
    37   22   46 1
    38   22   47 1
    39   23   24 1
    40   24   25 1
    41   24   48 1
    42   24   49 1
    43   25   50 1
    44   25   51 1
    45   26   27 2
    46   26   30 1
    47   27   28 1
    48   28   29 2
    49   28   31 1
    50   29   30 1
    51   29   52 1
    52   31   32 ar
    53   31   36 ar
    54   32   33 ar
    55   32   53 1
    56   33   34 ar
    57   33   54 1
    58   34   35 ar
    59   34   55 1
    60   35   36 ar
    61   35   56 1
    62   36   57 1
@<TRIPOS>SUBSTRUCTURE
     1 NU9         1 TEMP              0 ****  ****    0 ROOT
