@<TRIPOS>MOLECULE
molecule
   44    46     1     0     0
SMALL
bcc


@<TRIPOS>ATOM
      1 C1           0.0000     0.0000     0.0000 ca         1 NUD      -0.292000
      2 C2           1.3860     0.0000     0.0000 ca         1 NUD       0.285600
      3 C3           2.0830     0.0000     1.2220 ca         1 NUD      -0.011600
      4 C4           1.3700    -0.0000     2.4260 ca         1 NUD      -0.033000
      5 C5          -0.0060    -0.0010     2.4100 ca         1 NUD      -0.171300
      6 C6          -0.6940    -0.0010     1.2010 ca         1 NUD       0.200100
      7 O7          -2.0520    -0.0000     1.1960 oh         1 NUD      -0.510100
      8 C8          -0.7710    -0.0010     3.7090 c3         1 NUD      -0.031800
      9 N9           3.4450    -0.0000     1.2330 ne         1 NUD      -0.194400
     10 N10          4.0800     0.0000     2.3550 nf         1 NUD      -0.269400
     11 C11          5.4480     0.0000     2.3660 ca         1 NUD       0.173400
     12 C12          6.1400    -0.0010     3.5790 ca         1 NUD      -0.142000
     13 C13          7.5200    -0.0010     3.5830 ca         1 NUD      -0.023000
     14 C14          8.2180    -0.0000     2.3880 ca         1 NUD      -0.306500
     15 C15          7.5390     0.0010     1.1820 ca         1 NUD      -0.023000
     16 C16          6.1600    -0.0060     1.1630 ca         1 NUD      -0.142000
     17 S17          9.9800     0.0010     2.4020 sy         1 NUD       1.425200
     18 O18         10.3910     0.5450     1.1560 o          1 NUD      -0.622800
     19 O19         10.3710     0.5450     3.6550 o          1 NUD      -0.622800
     20 N20         10.4710    -1.5810     2.4050 nu         1 NUD      -0.854800
     21 C21         10.1990    -2.3960     1.3130 ca         1 NUD       0.689200
     22 N22          9.5480    -1.9000     0.2710 nb         1 NUD      -0.747000
     23 C23          9.2710    -2.6390    -0.7870 ca         1 NUD       0.468200
     24 C24          9.6520    -3.9650    -0.8440 ca         1 NUD      -0.289300
     25 C25         10.3370    -4.5220     0.2280 ca         1 NUD      -0.059000
     26 C26         10.6190    -3.7220     1.3200 ca         1 NUD      -0.286300
     27 N41          2.0850     0.0000    -1.2020 nv         1 NUD      -0.889200
     28 H1          -0.5410    -0.0000    -0.9380 ha         1 NUD       0.141000
     29 H4           1.9010    -0.0000     3.3710 ha         1 NUD       0.164000
     30 HO7         -2.3650    -0.7380     0.7000 ho         1 NUD       0.426000
     31 H8          -1.2460    -0.9640     3.8480 hc         1 NUD       0.044033
     32 H8A         -1.5270     0.7740     3.6830 hc         1 NUD       0.044033
     33 H8B         -0.0890     0.1870     4.5300 hc         1 NUD       0.044033
     34 H12          5.5950    -0.0010     4.5160 ha         1 NUD       0.147500
     35 H13          8.0580    -0.0020     4.5230 ha         1 NUD       0.159500
     36 H15          8.0920    -0.0010     0.2500 ha         1 NUD       0.159500
     37 H16          5.6300    -0.0060     0.2190 ha         1 NUD       0.147500
     38 HN20        10.9850    -1.9430     3.1830 hn         1 NUD       0.468800
     39 H23          8.7360    -2.2000    -1.6200 h4         1 NUD       0.027100
     40 H24          9.4180    -4.5640    -1.7160 ha         1 NUD       0.141000
     41 H25         10.6490    -5.5600     0.2060 ha         1 NUD       0.141000
     42 H26         11.1520    -4.1250     2.1720 ha         1 NUD       0.140000
     43 HN41         1.5870     0.0000    -2.0700 hn         1 NUD       0.442300
     44 HN4A         3.0860     0.0000    -1.1990 hn         1 NUD       0.442300
@<TRIPOS>BOND
     1     1     2 ar
     2     1     6 ar
     3     2     3 ar
     4     2    27 1
     5     3     4 ar
     6     3     9 1
     7     4     5 ar
     8     5     6 ar
     9     5     8 1
    10     6     7 1
    11     9    10 2
    12    10    11 1
    13    11    12 ar
    14    11    16 ar
    15    12    13 ar
    16    13    14 ar
    17    14    15 ar
    18    14    17 1
    19    15    16 ar
    20    17    18 2
    21    17    19 2
    22    17    20 1
    23    20    21 1
    24    21    22 ar
    25    21    26 ar
    26    22    23 ar
    27    23    24 ar
    28    24    25 ar
    29    25    26 ar
    30     1    28 1
    31     4    29 1
    32     7    30 1
    33     8    31 1
    34     8    32 1
    35     8    33 1
    36    12    34 1
    37    13    35 1
    38    15    36 1
    39    16    37 1
    40    20    38 1
    41    23    39 1
    42    24    40 1
    43    25    41 1
    44    26    42 1
    45    27    43 1
    46    27    44 1
@<TRIPOS>SUBSTRUCTURE
     1 NUD         1 TEMP              0 ****  ****    0 ROOT
