@<TRIPOS>MOLECULE
molecule
   47    49     1     0     0
SMALL
bcc


@<TRIPOS>ATOM
      1 C1           0.0000     0.0000     0.0000 ca         1 NUE      -0.289300
      2 C2           1.3880     0.0000     0.0000 ca         1 NUE      -0.059000
      3 C3          -0.6760    -0.0000     1.2030 ca         1 NUE       0.468200
      4 C4           2.0490     0.0000     1.2160 ca         1 NUE      -0.286300
      5 N5          -0.0200     0.0020     2.3490 nb         1 NUE      -0.747000
      6 C6           1.3030     0.0010     2.3910 ca         1 NUE       0.689200
      7 N7           1.9530     0.0000     3.6190 nu         1 NUE      -0.854800
      8 S8           1.0740     0.0010     5.0220 sy         1 NUE       1.423200
      9 C9           0.7700    -2.6280     5.6890 ca         1 NUE      -0.024000
     10 C10          0.1930    -1.5250     5.0860 ca         1 NUE      -0.304500
     11 C11          0.0880    -3.8250     5.7430 ca         1 NUE      -0.141000
     12 C12         -1.0720    -1.6130     4.5330 ca         1 NUE      -0.024000
     13 C13         -1.1910    -3.9210     5.1870 ca         1 NUE       0.172400
     14 C14         -1.7680    -2.8020     4.5800 ca         1 NUE      -0.141000
     15 O15          2.0150    -0.0350     6.0860 o          1 NUE      -0.621800
     16 O16          0.0960     1.0230     4.8820 o          1 NUE      -0.621800
     17 N17         -1.8740    -5.1050     5.2360 ne         1 NUE      -0.266400
     18 N18         -3.0540    -5.1900     4.7230 nf         1 NUE      -0.195400
     19 C19         -3.7350    -6.3680     4.7720 ca         1 NUE      -0.001600
     20 C20         -3.1570    -7.4900     5.3790 ca         1 NUE      -0.044000
     21 C21         -5.0240    -6.4650     4.2180 ca         1 NUE       0.277600
     22 C22         -3.8480    -8.6780     5.4260 ca         1 NUE      -0.176300
     23 C23         -5.7070    -7.6680     4.2730 ca         1 NUE      -0.209300
     24 C24         -5.1210    -8.7730     4.8730 ca         1 NUE       0.187100
     25 N25         -5.6100    -5.3550     3.6180 nv         1 NUE      -0.888200
     26 C26         -7.0890    -7.7780     3.6820 c3         1 NUE      -0.039800
     27 O27         -5.7950    -9.9510     4.9250 oh         1 NUE      -0.520100
     28 C28         -3.2230    -9.8830     6.0810 c3         1 NUE      -0.034800
     29 H1          -0.5470    -0.0010    -0.9350 ha         1 NUE       0.141000
     30 H2           1.9420    -0.0000    -0.9310 ha         1 NUE       0.141000
     31 H3          -1.7600     0.0000     1.2080 h4         1 NUE       0.028100
     32 H4           3.1310    -0.0000     1.2530 ha         1 NUE       0.140000
     33 HN7          2.9530     0.0250     3.6560 hn         1 NUE       0.469800
     34 H11          0.5410    -4.6880     6.2150 ha         1 NUE       0.148500
     35 H12         -1.5180    -0.7450     4.0630 ha         1 NUE       0.159500
     36 H14         -2.7580    -2.8690     4.1470 ha         1 NUE       0.148500
     37 H20         -2.1660    -7.4220     5.8120 ha         1 NUE       0.162000
     38 HN25        -6.5270    -5.4250     3.2230 hn         1 NUE       0.442300
     39 HN2A        -5.1140    -4.4860     3.5790 hn         1 NUE       0.442300
     40 H26         -7.7310    -7.0250     4.1230 hc         1 NUE       0.045367
     41 H26A        -7.4930    -8.7620     3.8870 hc         1 NUE       0.045367
     42 H26B        -7.0370    -7.6250     2.6110 hc         1 NUE       0.045367
     43 HO27        -5.5870   -10.4660     4.1630 ho         1 NUE       0.426000
     44 H28         -2.9990   -10.6280     5.3270 hc         1 NUE       0.043367
     45 H28A        -3.9130   -10.3000     6.8050 hc         1 NUE       0.043367
     46 H28B        -2.3080    -9.5890     6.5810 hc         1 NUE       0.043367
     47 H9           1.7620    -2.5510     6.1190 ha         1 NUE       0.159500
@<TRIPOS>BOND
     1     1     2 ar
     2     1     3 ar
     3     2     4 ar
     4     3     5 ar
     5     4     6 ar
     6     5     6 ar
     7     6     7 1
     8     7     8 1
     9     8    10 1
    10     8    15 2
    11     8    16 2
    12     9    10 ar
    13     9    11 ar
    14    10    12 ar
    15    11    13 ar
    16    12    14 ar
    17    13    14 ar
    18    13    17 1
    19    17    18 2
    20    18    19 1
    21    19    20 ar
    22    19    21 ar
    23    20    22 ar
    24    21    23 ar
    25    21    25 1
    26    22    24 ar
    27    22    28 1
    28    23    24 ar
    29    23    26 1
    30    24    27 1
    31     1    29 1
    32     2    30 1
    33     3    31 1
    34     4    32 1
    35     7    33 1
    36     9    47 1
    37    11    34 1
    38    12    35 1
    39    14    36 1
    40    20    37 1
    41    25    38 1
    42    25    39 1
    43    26    40 1
    44    26    41 1
    45    26    42 1
    46    27    43 1
    47    28    44 1
    48    28    45 1
    49    28    46 1
@<TRIPOS>SUBSTRUCTURE
     1 NUE         1 TEMP              0 ****  ****    0 ROOT
