@<TRIPOS>MOLECULE
NUE
   47    49     1     0     0
SMALL
bcc


@<TRIPOS>ATOM
      1 C1           0.0000     0.0000     0.0000 ca         1 NUE      -0.267300
      2 C2           1.3880     0.0000     0.0000 ca         1 NUE      -0.027000
      3 C3          -0.6760    -0.0000     1.2030 ca         1 NUE       0.449200
      4 C4           2.0490     0.0000     1.2160 ca         1 NUE      -0.272300
      5 N5          -0.0200     0.0020     2.3490 nb         1 NUE      -0.625000
      6 C6           1.3030     0.0010     2.3910 ca         1 NUE       0.559200
      7 N7           1.9530     0.0000     3.6190 nu         1 NUE      -0.483800
      8 S8           1.0740     0.0010     5.0220 sy         1 NUE       1.034200
      9 C9           0.7700    -2.6280     5.6890 ca         1 NUE       0.006000
     10 C10          0.1930    -1.5250     5.0860 ca         1 NUE      -0.153500
     11 C11          0.0880    -3.8250     5.7430 ca         1 NUE      -0.128500
     12 C12         -1.0720    -1.6130     4.5330 ca         1 NUE       0.006000
     13 C13         -1.1910    -3.9210     5.1870 ca         1 NUE       0.142400
     14 C14         -1.7680    -2.8020     4.5800 ca         1 NUE      -0.128500
     15 O15          2.0150    -0.0350     6.0860 o          1 NUE      -0.575800
     16 O16          0.0960     1.0230     4.8820 o          1 NUE      -0.575800
     17 N17         -1.8740    -5.1050     5.2360 ne         1 NUE      -0.237400
     18 N18         -3.0540    -5.1900     4.7230 nf         1 NUE      -0.124400
     19 C19         -3.7350    -6.3680     4.7720 ca         1 NUE      -0.053600
     20 C20         -3.1570    -7.4900     5.3790 ca         1 NUE      -0.007000
     21 C21         -5.0240    -6.4650     4.2180 ca         1 NUE       0.122600
     22 C22         -3.8480    -8.6780     5.4260 ca         1 NUE      -0.197300
     23 C23         -5.7070    -7.6680     4.2730 ca         1 NUE      -0.233300
     24 C24         -5.1210    -8.7730     4.8730 ca         1 NUE       0.213100
     25 N25         -5.6100    -5.3550     3.6180 nv         1 NUE      -0.403200
     26 C26         -7.0890    -7.7780     3.6820 c3         1 NUE       0.074200
     27 O27         -5.7950    -9.9510     4.9250 oh         1 NUE      -0.500100
     28 C28         -3.2230    -9.8830     6.0810 c3         1 NUE       0.081200
     29 H1          -0.5470    -0.0010    -0.9350 ha         1 NUE       0.115000
     30 H2           1.9420    -0.0000    -0.9310 ha         1 NUE       0.106000
     31 H3          -1.7600     0.0000     1.2080 h4         1 NUE      -0.021900
     32 H4           3.1310    -0.0000     1.2530 ha         1 NUE       0.117000
     33 HN7          2.9530     0.0250     3.6560 hn         1 NUE       0.346800
     34 H11          0.5410    -4.6880     6.2150 ha         1 NUE       0.120500
     35 H12         -1.5180    -0.7450     4.0630 ha         1 NUE       0.131500
     36 H14         -2.7580    -2.8690     4.1470 ha         1 NUE       0.120500
     37 H20         -2.1660    -7.4220     5.8120 ha         1 NUE       0.130000
     38 HN25        -5.1140    -4.4860     3.5790 hn         1 NUE       0.276800
     39 HN2A        -6.5270    -5.4250     3.2230 hn         1 NUE       0.276800
     40 H26         -7.4930    -8.7620     3.8870 hc         1 NUE       0.009367
     41 H26A        -7.0370    -7.6250     2.6110 hc         1 NUE       0.009367
     42 H26B        -7.7310    -7.0250     4.1230 hc         1 NUE       0.009367
     43 HO27        -5.5870   -10.4660     4.1630 ho         1 NUE       0.408000
     44 H28         -3.9130   -10.3000     6.8050 hc         1 NUE       0.006367
     45 H28A        -2.3090    -9.5890     6.5820 hc         1 NUE       0.006367
     46 H28B        -2.9980   -10.6280     5.3270 hc         1 NUE       0.006367
     47 H9           1.7620    -2.5510     6.1190 ha         1 NUE       0.131500
@<TRIPOS>BOND
     1     1     2 ar  
     2     1     3 ar  
     3     1    29 1   
     4     2     4 ar  
     5     2    30 1   
     6     3     5 ar  
     7     3    31 1   
     8     4     6 ar  
     9     4    32 1   
    10     5     6 ar  
    11     6     7 1   
    12     7     8 1   
    13     7    33 1   
    14     8    10 1   
    15     8    15 2   
    16     8    16 2   
    17     9    10 ar  
    18     9    11 ar  
    19     9    47 1   
    20    10    12 ar  
    21    11    13 ar  
    22    11    34 1   
    23    12    14 ar  
    24    12    35 1   
    25    13    14 ar  
    26    13    17 1   
    27    14    36 1   
    28    17    18 2   
    29    18    19 1   
    30    19    20 ar  
    31    19    21 ar  
    32    20    22 ar  
    33    20    37 1   
    34    21    23 ar  
    35    21    25 1   
    36    22    24 ar  
    37    22    28 1   
    38    23    24 ar  
    39    23    26 1   
    40    24    27 1   
    41    25    38 1   
    42    25    39 1   
    43    26    40 1   
    44    26    41 1   
    45    26    42 1   
    46    27    43 1   
    47    28    44 1   
    48    28    45 1   
    49    28    46 1   
@<TRIPOS>SUBSTRUCTURE
     1 NUE         1 TEMP              0 ****  ****    0 ROOT
