@<TRIPOS>MOLECULE
molecule
   14    15     1     0     0
SMALL
bcc


@<TRIPOS>ATOM
      1 O1           0.0000     0.0000     0.0000 o          1 NUK      -0.821300
      2 C5           1.2170     0.0000     0.0000 c          1 NUK       0.899200
      3 O            1.8920     0.0000     1.1680 o          1 NUK      -0.821300
      4 C4           1.9480    -0.0070    -1.2660 cc         1 NUK       0.019300
      5 C3           1.3750    -0.0140    -2.4930 cd         1 NUK      -0.156000
      6 S1           3.6950    -0.0010    -1.4170 ss         1 NUK      -0.101800
      7 C6           3.5880    -0.0170    -3.1870 cc         1 NUK      -0.080100
      8 C            4.4780    -0.0210    -4.2790 cc         1 NUK      -0.091000
      9 C2           2.2670    -0.0200    -3.5690 cd         1 NUK       0.034900
     10 S            2.1720    -0.0310    -5.3400 ss         1 NUK      -0.220800
     11 C1           3.9190    -0.0330    -5.4780 cd         1 NUK      -0.103100
     12 H3           0.3000    -0.0160    -2.6310 ha         1 NUK       0.162000
     13 HA           5.5530    -0.0200    -4.1460 ha         1 NUK       0.130000
     14 H1           4.4650    -0.0430    -6.4130 h4         1 NUK       0.151000
@<TRIPOS>BOND
     1     1     2 1
     2     2     3 1
     3     2     4 1
     4     4     5 2
     5     4     6 1
     6     5     9 1
     7     6     7 1
     8     7     8 1
     9     7     9 2
    10     8    11 2
    11     9    10 1
    12    10    11 1
    13     5    12 1
    14     8    13 1
    15    11    14 1
@<TRIPOS>SUBSTRUCTURE
     1 NUK         1 TEMP              0 ****  ****    0 ROOT
