@<TRIPOS>MOLECULE
NUP
   34    35     1     0     0
SMALL
bcc


@<TRIPOS>ATOM
      1 O4          0.0520    0.0940    0.3820 o         1 NUP     -0.718500
      2 C4          1.2840    0.1040    0.1450 c         1 NUP      0.742700
      3 N2          1.8010    1.1980   -0.5770 n         1 NUP     -0.605500
      4 C2          3.1730    1.3490   -0.8360 c         1 NUP      0.822500
      5 O2          3.5340    2.2820   -1.5910 o         1 NUP     -0.663500
      6 C5          2.2230   -0.9210    0.4970 cc        1 NUP     -0.509200
      7 C6          3.5980   -0.7880    0.2360 cd        1 NUP      0.374600
      8 N3          4.4110   -1.8910    0.3540 nh        1 NUP     -0.810600
      9 N1          4.0980    0.4270   -0.2780 n         1 NUP     -0.398000
     10 C1'         5.4500    0.9850   -0.0070 c3        1 NUP      0.282500
     11 O4'         6.4360   -0.0360    0.0700 os        1 NUP     -0.422600
     12 C2'         5.5400    1.8500    1.2820 c3        1 NUP      0.021100
     13 O2'         5.5410    3.2090    0.9330 oh        1 NUP     -0.632800
     14 C3'         6.9060    1.4290    1.9730 c3        1 NUP      0.366800
     15 O3'         7.8370    2.3400    1.8020 o         1 NUP     -0.862500
     16 C4'         7.1990    0.0490    1.2910 c3        1 NUP      0.035100
     17 C5'         6.8740   -1.1060    2.2420 c3        1 NUP      0.158400
     18 O5'         6.9440   -2.3580    1.6260 os        1 NUP     -0.601200
     19 P           8.0560   -3.4380    2.1980 p5        1 NUP      1.431800
     20 O1P         9.3940   -2.7920    1.5210 oh        1 NUP     -0.779400
     21 O2P         8.2260   -3.1720    3.6440 o         1 NUP     -0.843500
     22 O3P         7.7460   -4.7480    1.5950 o         1 NUP     -0.843500
     23 HN2         1.1950    1.9140   -0.9020 hn        1 NUP      0.324500
     24 H5          1.8130   -1.8310    0.9440 ha        1 NUP      0.152000
     25 HN31        5.4120   -1.7990    0.2920 hn        1 NUP      0.459300
     26 HN32        4.0930   -2.6010    0.9730 hn        1 NUP      0.459300
     27 H1'         5.7000    1.6020   -0.9230 h2        1 NUP      0.092700
     28 H2'         4.6660    1.6880    1.9600 h1        1 NUP      0.034700
     29 HO2'        6.4740    3.5060    0.9760 ho        1 NUP      0.435000
     30 H3'         6.6540    1.2250    3.0620 h1        1 NUP     -0.058300
     31 HO3'        9.6880   -2.0130    1.9780 ho        1 NUP      0.425000
     32 H4'         8.2640   -0.0120    0.9460 h1        1 NUP      0.071700
     33 H5'1        5.8220   -0.9720    2.6300 h1        1 NUP      0.029700
     34 H5'2        7.5870   -1.0620    3.1130 h1        1 NUP      0.029700
@<TRIPOS>BOND
     1    1    2 2   
     2    2    3 1   
     3    2    6 1   
     4    3    4 1   
     5    3   23 1   
     6    4    5 2   
     7    4    9 1   
     8    6    7 2   
     9    6   24 1   
    10    7    8 1   
    11    7    9 1   
    12    8   25 1   
    13    8   26 1   
    14    9   10 1   
    15   10   11 1   
    16   10   12 1   
    17   10   27 1   
    18   11   16 1   
    19   12   13 1   
    20   12   14 1   
    21   12   28 1   
    22   13   29 1   
    23   14   15 1   
    24   14   16 1   
    25   14   30 1   
    26   16   17 1   
    27   16   32 1   
    28   17   18 1   
    29   17   33 1   
    30   17   34 1   
    31   18   19 1   
    32   19   20 1   
    33   19   21 1   
    34   19   22 1   
    35   20   31 1   
@<TRIPOS>SUBSTRUCTURE
     1 NUP         1 TEMP              0 ****  ****    0 ROOT
