@<TRIPOS>MOLECULE
molecule
   70    74     1     0     0
SMALL
bcc


@<TRIPOS>ATOM
      1 O3           0.0000     0.0000     0.0000 o          1 NUT      -0.623100
      2 C25          1.2150     0.0000     0.0000 c          1 NUT       0.815100
      3 N2           1.8890     0.0000     1.1670 n          1 NUT      -0.506800
      4 C29          3.3450    -0.2110     1.2120 c3         1 NUT      -0.024000
      5 C28          3.6670    -1.1420     2.3490 c          1 NUT       0.689500
      6 O2           4.7790    -1.6210     2.4060 o          1 NUT      -0.659500
      7 N3           2.7860    -1.4620     3.2980 ns         1 NUT      -0.570900
      8 C27          1.3930    -1.0370     3.3110 c3         1 NUT       0.084000
      9 C26          1.2000     0.2200     2.4510 c3         1 NUT       0.110000
     10 N1           1.8900    -0.0080    -1.1670 n          1 NUT      -0.427300
     11 C10          1.3330     0.1110    -2.4210 ce         1 NUT       0.556500
     12 C9          -0.1180     0.2660    -2.6460 ca         1 NUT      -0.201900
     13 C3          -0.6080     1.3890    -3.3150 ca         1 NUT      -0.012000
     14 C2          -1.9620     1.5310    -3.5220 ca         1 NUT      -0.274000
     15 C5          -1.0100    -0.7160    -2.1910 ca         1 NUT       0.255100
     16 O1          -0.5410    -1.8130    -1.5430 os         1 NUT      -0.309900
     17 C6          -1.5120    -2.7090    -0.9980 c3         1 NUT       0.138100
     18 C8          -1.8020    -3.8210    -2.0070 c3         1 NUT      -0.105100
     19 C7          -0.9710    -3.3210     0.2950 c3         1 NUT      -0.105100
     20 C4          -2.3690    -0.5640    -2.4050 ca         1 NUT      -0.269000
     21 C1          -2.8460     0.5580    -3.0660 ca         1 NUT       0.200100
     22 O           -4.1790     0.7050    -3.2740 os         1 NUT      -0.326900
     23 C           -4.6010     1.8810    -3.9670 c3         1 NUT       0.128700
     24 C18          3.3490    -0.1370    -1.3210 c3         1 NUT       0.110000
     25 C19          4.0570     1.0100    -0.6500 ca         1 NUT      -0.121300
     26 C24          5.2400     0.7890     0.0320 ca         1 NUT      -0.104500
     27 C23          5.8910     1.8410     0.6480 ca         1 NUT      -0.124500
     28 C22          5.3590     3.1160     0.5830 ca         1 NUT       0.036400
     29 Cl1          6.1750     4.4390     1.3560 cl         1 NUT      -0.101400
     30 C21          4.1740     3.3380    -0.0990 ca         1 NUT      -0.124500
     31 C20          3.5280     2.2850    -0.7190 ca         1 NUT      -0.104500
     32 C11          3.5510    -0.0840    -2.8470 c3         1 NUT       0.159800
     33 N            2.1930     0.0750    -3.3860 n2         1 NUT      -0.625900
     34 C12          4.4050     1.1010    -3.2240 ca         1 NUT      -0.074300
     35 C17          3.8430     2.3620    -3.2970 ca         1 NUT      -0.102000
     36 C16          4.6260     3.4470    -3.6420 ca         1 NUT      -0.123000
     37 C15          5.9700     3.2720    -3.9160 ca         1 NUT       0.034400
     38 Cl           6.9540     4.6350    -4.3500 cl         1 NUT      -0.110400
     39 C14          6.5320     2.0090    -3.8440 ca         1 NUT      -0.123000
     40 C13          5.7490     0.9250    -3.4930 ca         1 NUT      -0.102000
     41 H1           3.6750    -0.6520     0.2790 h1         1 NUT       0.109200
     42 H2           3.8430     0.7370     1.3680 h1         1 NUT       0.109200
     43 H3           3.1050    -2.0350     4.0540 hn         1 NUT       0.325500
     44 H4           1.0980    -0.8180     4.3300 h1         1 NUT       0.051700
     45 H5           0.7740    -1.8340     2.9190 h1         1 NUT       0.051700
     46 H6           0.1440     0.3830     2.2750 h1         1 NUT       0.073200
     47 H7           1.6300     1.0770     2.9540 h1         1 NUT       0.073200
     48 H9           0.0770     2.1490    -3.6710 ha         1 NUT       0.140000
     49 H10         -2.3400     2.4050    -4.0400 ha         1 NUT       0.138000
     50 H11         -2.4250    -2.1670    -0.7870 h1         1 NUT       0.057700
     51 H12         -2.1800    -3.3870    -2.9250 hc         1 NUT       0.045867
     52 H13         -2.5410    -4.4980    -1.5960 hc         1 NUT       0.045867
     53 H14         -0.8890    -4.3670    -2.2150 hc         1 NUT       0.045867
     54 H15         -1.2160    -2.6750     1.1300 hc         1 NUT       0.045867
     55 H16         -1.4190    -4.2950     0.4490 hc         1 NUT       0.045867
     56 H17          0.1050    -3.4260     0.2230 hc         1 NUT       0.045867
     57 H18         -3.0600    -1.3200    -2.0530 ha         1 NUT       0.155000
     58 H19         -5.6800     1.8730    -4.0670 h1         1 NUT       0.043367
     59 H20         -4.1480     1.9030    -4.9510 h1         1 NUT       0.043367
     60 H21         -4.2970     2.7580    -3.4100 h1         1 NUT       0.043367
     61 H22          3.6890    -1.0870    -0.9260 h1         1 NUT       0.087700
     62 H23          5.6560    -0.2100     0.0830 ha         1 NUT       0.151000
     63 H24          6.8170     1.6670     1.1820 ha         1 NUT       0.151000
     64 H25          3.7580     4.3360    -0.1520 ha         1 NUT       0.151000
     65 H26          2.6010     2.4580    -1.2520 ha         1 NUT       0.151000
     66 H27          3.9930    -1.0070    -3.2030 h1         1 NUT       0.091700
     67 H30          2.7900     2.4990    -3.0830 ha         1 NUT       0.139000
     68 H31          4.1870     4.4360    -3.6990 ha         1 NUT       0.144000
     69 H32          7.5850     1.8710    -4.0560 ha         1 NUT       0.144000
     70 H33          6.1880    -0.0640    -3.4360 ha         1 NUT       0.139000
@<TRIPOS>BOND
     1     6     5 2
     2     5     4 1
     3     5     7 1
     4     4     3 1
     5     1     2 2
     6     7     8 1
     7     2     3 1
     8     2    10 1
     9     3     9 1
    10     8     9 1
    11    32    24 1
    12    32    33 1
    13    32    34 1
    14    13    14 ar
    15    13    12 ar
    16    10    24 1
    17    10    11 1
    18    14    21 ar
    19    35    34 ar
    20    35    36 ar
    21    24    25 1
    22    11    33 2
    23    11    12 1
    24    12    15 ar
    25    23    22 1
    26    34    40 ar
    27    21    22 1
    28    21    20 ar
    29    36    37 ar
    30    15    20 ar
    31    15    16 1
    32    18    17 1
    33    16    17 1
    34    25    26 ar
    35    25    31 ar
    36    26    27 ar
    37    40    39 ar
    38    37    39 ar
    39    37    38 1
    40    17    19 1
    41    31    30 ar
    42    27    28 ar
    43    30    28 ar
    44    28    29 1
    45     4    41 1
    46     4    42 1
    47     7    43 1
    48     8    44 1
    49     8    45 1
    50     9    46 1
    51     9    47 1
    52    13    48 1
    53    14    49 1
    54    17    50 1
    55    18    51 1
    56    18    52 1
    57    18    53 1
    58    19    54 1
    59    19    55 1
    60    19    56 1
    61    20    57 1
    62    23    58 1
    63    23    59 1
    64    23    60 1
    65    24    61 1
    66    26    62 1
    67    27    63 1
    68    30    64 1
    69    31    65 1
    70    32    66 1
    71    35    67 1
    72    36    68 1
    73    39    69 1
    74    40    70 1
@<TRIPOS>SUBSTRUCTURE
     1 NUT         1 TEMP              0 ****  ****    0 ROOT
