@<TRIPOS>MOLECULE
NUT
   70    74     1     0     0
SMALL
bcc


@<TRIPOS>ATOM
      1 O3           0.0000     0.0000     0.0000 o          1 NUT      -0.668100
      2 C25          1.2150     0.0000     0.0000 c          1 NUT       0.628100
      3 N2           1.8890     0.0000     1.1670 n          1 NUT      -0.169800
      4 C29          3.3450    -0.2110     1.2120 c3         1 NUT      -0.159000
      5 C28          3.6670    -1.1420     2.3490 c          1 NUT       0.607500
      6 O2           4.7790    -1.6210     2.4060 o          1 NUT      -0.696500
      7 N3           2.7860    -1.4620     3.2980 ns         1 NUT      -0.172900
      8 C27          1.3930    -1.0370     3.3110 c3         1 NUT       0.024000
      9 C26          1.2000     0.2200     2.4510 c3         1 NUT       0.054000
     10 N1           1.8900    -0.0080    -1.1670 n          1 NUT      -0.055300
     11 C10          1.3330     0.1110    -2.4210 ce         1 NUT       0.429500
     12 C9          -0.1180     0.2660    -2.6460 ca         1 NUT      -0.219900
     13 C3          -0.6080     1.3890    -3.3150 ca         1 NUT       0.024000
     14 C2          -1.9620     1.5310    -3.5220 ca         1 NUT      -0.269000
     15 C5          -1.0100    -0.7160    -2.1910 ca         1 NUT       0.268100
     16 O1          -0.5410    -1.8130    -1.5430 os         1 NUT      -0.291900
     17 C6          -1.5120    -2.7090    -0.9980 c3         1 NUT       0.161100
     18 C8          -1.8020    -3.8210    -2.0070 c3         1 NUT      -0.016600
     19 C7          -0.9710    -3.3210     0.2950 c3         1 NUT      -0.016600
     20 C4          -2.3690    -0.5640    -2.4050 ca         1 NUT      -0.271000
     21 C1          -2.8460     0.5580    -3.0660 ca         1 NUT       0.214100
     22 O           -4.1790     0.7050    -3.2740 os         1 NUT      -0.308900
     23 C           -4.6010     1.8810    -3.9670 c3         1 NUT       0.244700
     24 C18          3.3490    -0.1370    -1.3210 c3         1 NUT       0.025000
     25 C19          4.0570     1.0100    -0.6500 ca         1 NUT      -0.131300
     26 C24          5.2400     0.7890     0.0320 ca         1 NUT      -0.083500
     27 C23          5.8910     1.8410     0.6480 ca         1 NUT      -0.099500
     28 C22          5.3590     3.1160     0.5830 ca         1 NUT      -0.028600
     29 Cl1          6.1750     4.4390     1.3560 cl         1 NUT      -0.015400
     30 C21          4.1740     3.3380    -0.0990 ca         1 NUT      -0.099500
     31 C20          3.5280     2.2850    -0.7190 ca         1 NUT      -0.083500
     32 C11          3.5510    -0.0840    -2.8470 c3         1 NUT       0.193800
     33 N            2.1930     0.0750    -3.3860 n2         1 NUT      -0.597900
     34 C12          4.4050     1.1010    -3.2240 ca         1 NUT      -0.085300
     35 C17          3.8430     2.3620    -3.2970 ca         1 NUT      -0.078000
     36 C16          4.6260     3.4470    -3.6420 ca         1 NUT      -0.100000
     37 C15          5.9700     3.2720    -3.9160 ca         1 NUT      -0.028600
     38 Cl           6.9540     4.6350    -4.3500 cl         1 NUT      -0.028400
     39 C14          6.5320     2.0090    -3.8440 ca         1 NUT      -0.100000
     40 C13          5.7490     0.9250    -3.4930 ca         1 NUT      -0.078000
     41 H1           3.6750    -0.6520     0.2790 h1         1 NUT       0.106700
     42 H2           3.8430     0.7370     1.3680 h1         1 NUT       0.106700
     43 H3           3.1050    -2.0350     4.0540 hn         1 NUT       0.183500
     44 H4           1.0980    -0.8180     4.3300 h1         1 NUT       0.023700
     45 H5           0.7740    -1.8340     2.9190 h1         1 NUT       0.023700
     46 H6           0.1440     0.3830     2.2750 h1         1 NUT       0.043700
     47 H7           1.6300     1.0770     2.9540 h1         1 NUT       0.043700
     48 H9           0.0770     2.1490    -3.6710 ha         1 NUT       0.104000
     49 H10         -2.3400     2.4050    -4.0400 ha         1 NUT       0.124000
     50 H11         -2.4250    -2.1670    -0.7870 h1         1 NUT       0.032700
     51 H12         -2.1800    -3.3870    -2.9250 hc         1 NUT       0.011867
     52 H13         -2.5410    -4.4980    -1.5960 hc         1 NUT       0.011867
     53 H14         -0.8890    -4.3670    -2.2150 hc         1 NUT       0.011867
     54 H15         -1.2160    -2.6750     1.1300 hc         1 NUT       0.011867
     55 H16         -1.4190    -4.2950     0.4490 hc         1 NUT       0.011867
     56 H17          0.1050    -3.4260     0.2230 hc         1 NUT       0.011867
     57 H18         -3.0600    -1.3200    -2.0530 ha         1 NUT       0.141000
     58 H19         -5.6800     1.8730    -4.0670 h1         1 NUT      -0.001633
     59 H20         -4.1480     1.9030    -4.9510 h1         1 NUT      -0.001633
     60 H21         -4.2970     2.7580    -3.4100 h1         1 NUT      -0.001633
     61 H22          3.6890    -1.0870    -0.9260 h1         1 NUT       0.066700
     62 H23          5.6560    -0.2100     0.0830 ha         1 NUT       0.129000
     63 H24          6.8170     1.6670     1.1820 ha         1 NUT       0.122500
     64 H25          3.7580     4.3360    -0.1520 ha         1 NUT       0.122500
     65 H26          2.6010     2.4580    -1.2520 ha         1 NUT       0.129000
     66 H27          3.9930    -1.0070    -3.2030 h1         1 NUT       0.052700
     67 H30          2.7900     2.4990    -3.0830 ha         1 NUT       0.113500
     68 H31          4.1870     4.4360    -3.6990 ha         1 NUT       0.115000
     69 H32          7.5850     1.8710    -4.0560 ha         1 NUT       0.115000
     70 H33          6.1880    -0.0640    -3.4360 ha         1 NUT       0.113500
@<TRIPOS>BOND
     1     1     2 2   
     2     2     3 1   
     3     2    10 1   
     4     3     4 1   
     5     3     9 1   
     6     4     5 1   
     7     4    41 1   
     8     4    42 1   
     9     5     6 2   
    10     5     7 1   
    11     7     8 1   
    12     7    43 1   
    13     8     9 1   
    14     8    44 1   
    15     8    45 1   
    16     9    46 1   
    17     9    47 1   
    18    10    11 1   
    19    10    24 1   
    20    11    12 1   
    21    11    33 2   
    22    12    13 ar  
    23    12    15 ar  
    24    13    14 ar  
    25    13    48 1   
    26    14    21 ar  
    27    14    49 1   
    28    15    16 1   
    29    15    20 ar  
    30    16    17 1   
    31    17    18 1   
    32    17    19 1   
    33    17    50 1   
    34    18    51 1   
    35    18    52 1   
    36    18    53 1   
    37    19    54 1   
    38    19    55 1   
    39    19    56 1   
    40    20    21 ar  
    41    20    57 1   
    42    21    22 1   
    43    22    23 1   
    44    23    58 1   
    45    23    59 1   
    46    23    60 1   
    47    24    25 1   
    48    24    32 1   
    49    24    61 1   
    50    25    26 ar  
    51    25    31 ar  
    52    26    27 ar  
    53    26    62 1   
    54    27    28 ar  
    55    27    63 1   
    56    28    29 1   
    57    28    30 ar  
    58    30    31 ar  
    59    30    64 1   
    60    31    65 1   
    61    32    33 1   
    62    32    34 1   
    63    32    66 1   
    64    34    35 ar  
    65    34    40 ar  
    66    35    36 ar  
    67    35    67 1   
    68    36    37 ar  
    69    36    68 1   
    70    37    38 1   
    71    37    39 ar  
    72    39    40 ar  
    73    39    69 1   
    74    40    70 1   
@<TRIPOS>SUBSTRUCTURE
     1 NUT         1 TEMP              0 ****  ****    0 ROOT
