@<TRIPOS>MOLECULE
NV1
   37    37     1     0     0
SMALL
bcc


@<TRIPOS>ATOM
      1 N1           0.0000     0.0000     0.0000 nz         1 NV1       0.112400
      2 C2           4.5360    -1.1950     4.9150 ca         1 NV1      -0.095000
      3 C4           4.3880     1.1960     4.9680 ca         1 NV1      -0.095000
      4 C5           3.9270     1.1990     3.6650 ca         1 NV1      -0.055300
      5 C7           3.7640    -0.0000     2.9850 ca         1 NV1      -0.139400
      6 C1           4.0700    -1.1990     3.6150 ca         1 NV1      -0.055300
      7 C10          5.1410     1.2390     0.6430 c3         1 NV1      -0.030100
      8 C11          1.9720     0.0000     1.4210 c          1 NV1       0.541100
      9 C12          1.4690     0.0000     0.0000 c3         1 NV1      -0.140200
     10 C3           4.6920     0.0010     5.5920 ca         1 NV1      -0.049000
     11 C9           5.1160    -1.2590     0.6240 c3         1 NV1      -0.030100
     12 N            3.2970    -0.0010     1.6660 n          1 NV1       0.091000
     13 O            1.1840     0.0000     2.3430 o          1 NV1      -0.640100
     14 H19         -0.3340     0.8170     0.4710 hn         1 NV1       0.227133
     15 H18         -0.3340    -0.8170     0.4720 hn         1 NV1       0.227133
     16 H3           4.7750    -2.1300     5.4070 ha         1 NV1       0.120000
     17 H5           4.5140     2.1320     5.5000 ha         1 NV1       0.120000
     18 H6           4.5130     3.0000     2.6910 hc         1 NV1       0.013867
     19 H7           2.9920     2.3100     2.1070 hc         1 NV1       0.013867
     20 H8           3.0450     3.1380     3.6690 hc         1 NV1       0.013867
     21 H9           3.7100     0.0100    -0.3860 h1         1 NV1       0.018700
     22 H            3.2380    -2.3540     2.0320 hc         1 NV1       0.013867
     23 H2           3.4600    -3.2370     3.5490 hc         1 NV1       0.013867
     24 H1           4.8580    -2.8550     2.5350 hc         1 NV1       0.013867
     25 H14          4.5260     2.1300     0.6070 hc         1 NV1       0.028533
     26 H13          5.6950     1.2200     1.5740 hc         1 NV1       0.028533
     27 H15          5.8340     1.2450    -0.1890 hc         1 NV1       0.028533
     28 H16          1.8300     0.8850    -0.5110 hx         1 NV1       0.094700
     29 H17          1.8300    -0.8840    -0.5110 hx         1 NV1       0.094700
     30 H4           5.0560     0.0020     6.6130 ha         1 NV1       0.116000
     31 H11          5.6650    -1.2670     1.5580 hc         1 NV1       0.028533
     32 H10          5.8130    -1.2610    -0.2050 hc         1 NV1       0.028533
     33 H12          4.4860    -2.1390     0.5680 hc         1 NV1       0.028533
     34 C8           4.2490    -0.0010     0.5530 c3         1 NV1      -0.014300
     35 C            3.8940    -2.5030     2.8810 c3         1 NV1       0.048700
     36 H131        -0.3340     0.0120    -0.9440 hn         1 NV1       0.227133
     37 C6           3.5960     2.5040     2.9850 c3         1 NV1       0.048700
@<TRIPOS>BOND
     1     1     9 1   
     2     1    14 1   
     3     1    15 1   
     4     1    36 1   
     5     2     6 ar  
     6     2    10 ar  
     7     2    16 1   
     8     3     4 ar  
     9     3    10 ar  
    10     3    17 1   
    11     4     5 ar  
    12     4    37 1   
    13     5     6 ar  
    14     5    12 1   
    15     6    35 1   
    16     7    25 1   
    17     7    26 1   
    18     7    27 1   
    19     7    34 1   
    20     8     9 1   
    21     8    12 1   
    22     8    13 2   
    23     9    28 1   
    24     9    29 1   
    25    10    30 1   
    26    11    31 1   
    27    11    32 1   
    28    11    33 1   
    29    11    34 1   
    30    12    34 1   
    31    18    37 1   
    32    19    37 1   
    33    20    37 1   
    34    21    34 1   
    35    22    35 1   
    36    23    35 1   
    37    24    35 1   
@<TRIPOS>SUBSTRUCTURE
     1 NV1         1 TEMP              0 ****  ****    0 ROOT
