@<TRIPOS>MOLECULE
molecule
   37    37     1     0     0
SMALL
bcc


@<TRIPOS>ATOM
      1 N1           0.0000     0.0000     0.0000 nz         1 NV1      -0.795600
      2 C2           4.5360    -1.1950     4.9150 ca         1 NV1      -0.122000
      3 C4           4.3880     1.1960     4.9680 ca         1 NV1      -0.122000
      4 C5           3.9270     1.1990     3.6650 ca         1 NV1      -0.060300
      5 C7           3.7640    -0.0000     2.9850 ca         1 NV1       0.008600
      6 C1           4.0700    -1.1990     3.6150 ca         1 NV1      -0.060300
      7 C10          5.1410     1.2390     0.6430 c3         1 NV1      -0.111600
      8 C11          1.9720     0.0000     1.4210 c          1 NV1       0.636100
      9 C12          1.4690     0.0000     0.0000 c3         1 NV1       0.011800
     10 C3           4.6920     0.0010     5.5920 ca         1 NV1      -0.091000
     11 C9           5.1160    -1.2590     0.6240 c3         1 NV1      -0.111600
     12 N            3.2970    -0.0010     1.6660 n          1 NV1      -0.342000
     13 O            1.1840     0.0000     2.3430 o          1 NV1      -0.587100
     14 H19         -0.3340     0.8170     0.4710 hn         1 NV1       0.465467
     15 H18         -0.3340    -0.8170     0.4720 hn         1 NV1       0.465467
     16 H3           4.7750    -2.1300     5.4070 ha         1 NV1       0.149000
     17 H5           4.5140     2.1320     5.5000 ha         1 NV1       0.149000
     18 H6           4.5130     3.0000     2.6910 hc         1 NV1       0.045700
     19 H7           2.9920     2.3100     2.1070 hc         1 NV1       0.045700
     20 H8           3.0450     3.1380     3.6690 hc         1 NV1       0.045700
     21 H9           3.7100     0.0100    -0.3860 h1         1 NV1       0.034700
     22 H            3.2380    -2.3540     2.0320 hc         1 NV1       0.045700
     23 H2           3.4600    -3.2370     3.5490 hc         1 NV1       0.045700
     24 H1           4.8580    -2.8550     2.5350 hc         1 NV1       0.045700
     25 H14          4.5260     2.1300     0.6070 hc         1 NV1       0.058200
     26 H13          5.6950     1.2200     1.5740 hc         1 NV1       0.058200
     27 H15          5.8340     1.2450    -0.1890 hc         1 NV1       0.058200
     28 H16          1.8300     0.8850    -0.5110 hx         1 NV1       0.124700
     29 H17          1.8300    -0.8840    -0.5110 hx         1 NV1       0.124700
     30 H4           5.0560     0.0020     6.6130 ha         1 NV1       0.149000
     31 H11          5.6650    -1.2670     1.5580 hc         1 NV1       0.058200
     32 H10          5.8130    -1.2610    -0.2050 hc         1 NV1       0.058200
     33 H12          4.4860    -2.1390     0.5680 hc         1 NV1       0.058200
     34 C8           4.2490    -0.0010     0.5530 c3         1 NV1       0.093700
     35 C            3.8940    -2.5030     2.8810 c3         1 NV1      -0.048800
     36 H131        -0.3340     0.0120    -0.9440 hn         1 NV1       0.465467
     37 C6           3.5960     2.5040     2.9850 c3         1 NV1      -0.048800
@<TRIPOS>BOND
     1     7    34 1
     2    11    34 1
     3    34    12 1
     4    37     4 1
     5    12     5 1
     6    12     8 1
     7    13     8 2
     8     4     5 ar
     9     4     3 ar
    10     5     6 ar
    11     8     9 1
    12     3    10 ar
    13    35     6 1
    14     6     2 ar
    15    10     2 ar
    16     9     1 1
    17     1    14 1
    18     1    15 1
    19     2    16 1
    20     3    17 1
    21    37    18 1
    22    37    19 1
    23    37    20 1
    24    34    21 1
    25    35    22 1
    26    35    23 1
    27    35    24 1
    28     7    25 1
    29     7    26 1
    30     7    27 1
    31     9    28 1
    32     9    29 1
    33    10    30 1
    34    11    31 1
    35    11    32 1
    36    11    33 1
    37    36     1 1
@<TRIPOS>SUBSTRUCTURE
     1 NV1         1 TEMP              0 ****  ****    0 ROOT
