@<TRIPOS>MOLECULE
molecule
   58    63     1     0     0
SMALL
bcc


@<TRIPOS>ATOM
      1 C2           0.0000     0.0000     0.0000 ca         1 NV4      -0.081300
      2 C4           2.1140     0.0000     1.3980 c3         1 NV4      -0.084700
      3 C5           1.3750    -1.0090     2.3010 c3         1 NV4      -0.181700
      4 C6          -0.0980    -0.7800     2.3910 c3         1 NV4       0.051900
      5 C13          1.8110    -2.3460     1.7730 c          1 NV4       0.728600
      6 C7          -0.7490    -2.0430     2.8950 ca         1 NV4      -0.025300
      7 C12         -0.8610    -2.2660     4.2550 ca         1 NV4      -0.221500
      8 C11         -1.4590    -3.4260     4.7210 ca         1 NV4       0.157100
      9 O26         -1.5690    -3.6450     6.0590 os         1 NV4      -0.311900
     10 C29         -1.0450    -2.6370     6.9260 c3         1 NV4       0.126700
     11 C10         -1.9480    -4.3660     3.8210 ca         1 NV4       0.056100
     12 O25         -2.5370    -5.5050     4.2750 os         1 NV4      -0.323900
     13 C28         -3.9490    -5.4620     4.4960 c3         1 NV4       0.135700
     14 C9          -1.8350    -4.1370     2.4550 ca         1 NV4       0.157100
     15 O24         -2.3120    -5.0520     1.5690 os         1 NV4      -0.311900
     16 C27         -2.1610    -4.7520     0.1800 c3         1 NV4       0.126700
     17 C8          -1.2390    -2.9720     1.9960 ca         1 NV4      -0.221500
     18 O14          3.0140    -2.1910     1.1800 os         1 NV4      -0.390900
     19 C15          3.4560    -0.7980     1.2560 c3         1 NV4       0.118400
     20 C3           1.5000     0.0000     0.0000 c3         1 NV4       0.055700
     21 S30          2.0790    -1.4690    -0.8850 ss         1 NV4      -0.224400
     22 C31          1.9780    -0.8850    -2.5450 cc         1 NV4       0.440800
     23 N35          2.1890    -1.6180    -3.6770 na         1 NV4      -0.423700
     24 C34          2.0010    -0.7520    -4.7190 cd         1 NV4       0.354400
     25 N33          1.7010     0.4100    -4.2090 nc         1 NV4      -0.345000
     26 N32          1.6810     0.3360    -2.9260 nc         1 NV4      -0.388000
     27 C17         -0.6230     0.4180    -1.1810 ca         1 NV4      -0.111000
     28 C18         -2.0060     0.3950    -1.2320 ca         1 NV4       0.049100
     29 O21         -2.8510     0.7360    -2.2310 os         1 NV4      -0.313900
     30 C22         -4.1180     0.1410    -1.8830 c3         1 NV4       0.328200
     31 O23         -4.0720     0.0360    -0.4450 os         1 NV4      -0.319900
     32 C19         -2.7600    -0.0340    -0.1290 ca         1 NV4       0.049100
     33 C20         -2.1370    -0.4340     1.0410 ca         1 NV4      -0.108000
     34 C1          -0.7410    -0.3980     1.0870 ca         1 NV4      -0.068300
     35 H1           2.2350     0.9830     1.8380 hc         1 NV4       0.103700
     36 H2           1.7780    -0.9070     3.3020 hc         1 NV4       0.084700
     37 H3          -0.2780     0.0140     3.1050 hc         1 NV4       0.072700
     38 H4          -0.5000    -1.5240     4.9560 ha         1 NV4       0.141000
     39 H5          -1.2240    -2.9190     7.9570 h1         1 NV4       0.041367
     40 H6           0.0200    -2.5350     6.7590 h1         1 NV4       0.041367
     41 H7          -1.5360    -1.6930     6.7200 h1         1 NV4       0.041367
     42 H8          -4.4370    -6.1870     3.8550 h1         1 NV4       0.032700
     43 H9          -4.3210    -4.4710     4.2670 h1         1 NV4       0.032700
     44 H10         -4.1600    -5.6970     5.5320 h1         1 NV4       0.032700
     45 H11         -1.1070    -4.6670    -0.0580 h1         1 NV4       0.041367
     46 H12         -2.6590    -3.8170    -0.0430 h1         1 NV4       0.041367
     47 H13         -2.6010    -5.5460    -0.4100 h1         1 NV4       0.041367
     48 H14         -1.1510    -2.7940     0.9310 ha         1 NV4       0.141000
     49 H15          4.0840    -0.6450     2.1250 h1         1 NV4       0.080200
     50 H16          3.9730    -0.5140     0.3470 h1         1 NV4       0.080200
     51 H17          1.8430     0.8830    -0.5250 h1         1 NV4       0.116700
     52 H18          2.4300    -2.5870    -3.7330 hn         1 NV4       0.316700
     53 H19          2.0880    -0.9870    -5.7730 h5         1 NV4       0.076100
     54 H20         -0.0480     0.5030    -2.0960 ha         1 NV4       0.192000
     55 H21         -4.2110    -0.8400    -2.3310 h2         1 NV4       0.070700
     56 H22         -2.7070    -0.5110     1.9590 ha         1 NV4       0.158000
     57 H23         -4.9350     0.7850    -2.1890 h2         1 NV4       0.070700
     58 O16          1.1920    -3.3800     1.8620 o          1 NV4      -0.526500
@<TRIPOS>BOND
     1    25    24 2
     2    25    26 1
     3    24    23 1
     4    26    22 2
     5    29    30 1
     6    29    28 1
     7    23    22 1
     8    22    21 1
     9    30    31 1
    10    27    28 ar
    11    27     1 ar
    12    28    32 ar
    13    21    20 1
    14    20     1 1
    15    20     2 1
    16    31    32 1
    17     1    34 ar
    18    32    33 ar
    19     2    19 1
    20     2     3 1
    21    10     9 1
    22    34    33 ar
    23    34     4 1
    24    19    18 1
    25     3     4 1
    26     3     5 1
    27     4     6 1
    28     7     6 ar
    29     7     8 ar
    30     9     8 1
    31    18     5 1
    32     6    17 ar
    33     8    11 ar
    34     5    58 2
    35    17    14 ar
    36    11    14 ar
    37    11    12 1
    38    13    12 1
    39    14    15 1
    40    15    16 1
    41     2    35 1
    42     3    36 1
    43     4    37 1
    44     7    38 1
    45    10    39 1
    46    10    40 1
    47    10    41 1
    48    13    42 1
    49    13    43 1
    50    13    44 1
    51    16    45 1
    52    16    46 1
    53    16    47 1
    54    17    48 1
    55    19    49 1
    56    19    50 1
    57    20    51 1
    58    23    52 1
    59    24    53 1
    60    27    54 1
    61    30    55 1
    62    33    56 1
    63    30    57 1
@<TRIPOS>SUBSTRUCTURE
     1 NV4         1 TEMP              0 ****  ****    0 ROOT
