@<TRIPOS>MOLECULE
molecule
   56    59     1     0     0
SMALL
bcc


@<TRIPOS>ATOM
      1 S1           0.0000     0.0000     0.0000 sy         1 NVB       1.426200
      2 O2           1.4200     0.0000     0.0000 o          1 NVB      -0.638300
      3 O3          -0.7780     0.0000     1.1890 o          1 NVB      -0.638300
      4 N4          -0.4680     1.3330    -0.8640 n7         1 NVB      -0.916100
      5 C6          -1.8910     1.6050    -1.0780 c3         1 NVB       0.223100
      6 C10         -0.4980    -1.4180    -0.9200 ca         1 NVB      -0.315500
      7 C11          0.3620    -1.9730    -1.8500 ca         1 NVB      -0.035500
      8 C13         -0.0230    -3.0830    -2.5730 ca         1 NVB      -0.128000
      9 C15         -1.2820    -3.6470    -2.3640 cp         1 NVB       0.024000
     10 C16         -2.1440    -3.0840    -1.4250 ca         1 NVB      -0.128000
     11 C18         -1.7460    -1.9760    -0.7040 ca         1 NVB      -0.035500
     12 C20         -1.7000    -4.8390    -3.1370 cp         1 NVB      -0.089300
     13 C21         -2.2350    -5.9700    -2.4740 ca         1 NVB       0.319300
     14 N22         -2.3710    -5.9860    -1.1460 nb         1 NVB      -0.646000
     15 C23         -2.8740    -7.0570    -0.5530 cp         1 NVB       0.375500
     16 C24         -3.2640    -8.1750    -1.3120 ca         1 NVB       0.317900
     17 N26         -3.1350    -8.1730    -2.6170 nb         1 NVB      -0.637000
     18 C27         -2.6290    -7.0980    -3.2360 ca         1 NVB       0.295300
     19 C28         -2.4820    -7.0730    -4.6320 ca         1 NVB      -0.147300
     20 C30         -1.9650    -5.9720    -5.2470 ca         1 NVB      -0.124000
     21 C32         -1.5780    -4.8560    -4.5150 ca         1 NVB      -0.099000
     22 C34         -3.0260    -7.0770     0.9200 cp         1 NVB      -0.090500
     23 C35         -3.4560    -8.2390     1.5620 ca         1 NVB      -0.223500
     24 C37         -3.5990    -8.2560     2.9380 ca         1 NVB       0.152600
     25 C38         -3.3120    -7.1170     3.6820 ca         1 NVB       0.064100
     26 C39         -2.8820    -5.9570     3.0450 ca         1 NVB       0.152600
     27 C40         -2.7330    -5.9370     1.6690 ca         1 NVB      -0.223500
     28 O42         -2.6030    -4.8440     3.7740 os         1 NVB      -0.310900
     29 C43         -2.1680    -3.6880     3.0550 c3         1 NVB       0.125200
     30 O47         -3.4520    -7.1360     5.0360 os         1 NVB      -0.324900
     31 C48         -2.3090    -7.5270     5.8000 c3         1 NVB       0.135700
     32 O52         -4.0190    -9.3890     3.5630 os         1 NVB      -0.310900
     33 C53         -4.2960   -10.5220     2.7370 c3         1 NVB       0.125200
     34 HN4          0.2210     1.9520    -1.2410 hn         1 NVB       0.455800
     35 H6          -2.4120     1.5710    -0.1290 h1         1 NVB       0.043033
     36 H6A         -2.0090     2.5870    -1.5200 h1         1 NVB       0.043033
     37 H6B         -2.3050     0.8580    -1.7440 h1         1 NVB       0.043033
     38 H11          1.3390    -1.5350    -2.0120 ha         1 NVB       0.150000
     39 H13          0.6510    -3.5170    -3.3020 ha         1 NVB       0.144500
     40 H16         -3.1220    -3.5180    -1.2560 ha         1 NVB       0.144500
     41 H18         -2.4150    -1.5370     0.0260 ha         1 NVB       0.150000
     42 H24         -3.6740    -9.0460    -0.8140 h4         1 NVB       0.036100
     43 H28         -2.7780    -7.9320    -5.2220 ha         1 NVB       0.153000
     44 H30         -1.8610    -5.9640    -6.3250 ha         1 NVB       0.140000
     45 H32         -1.1700    -3.9930    -5.0280 ha         1 NVB       0.142000
     46 H35         -3.6800    -9.1270     0.9830 ha         1 NVB       0.151500
     47 H40         -2.3990    -5.0340     1.1730 ha         1 NVB       0.151500
     48 H43         -1.9820    -2.8790     3.7500 h1         1 NVB       0.045033
     49 H43A        -2.9360    -3.3910     2.3510 h1         1 NVB       0.045033
     50 H43B        -1.2560    -3.9200     2.5170 h1         1 NVB       0.045033
     51 H48         -2.5560    -8.3950     6.4000 h1         1 NVB       0.035367
     52 H48A        -1.4930    -7.7710     5.1310 h1         1 NVB       0.035367
     53 H48B        -2.0130    -6.7120     6.4490 h1         1 NVB       0.035367
     54 H53         -4.5930   -11.3580     3.3580 h1         1 NVB       0.045033
     55 H53A        -5.0970   -10.2800     2.0490 h1         1 NVB       0.045033
     56 H53B        -3.4070   -10.7870     2.1770 h1         1 NVB       0.045033
@<TRIPOS>BOND
     1     1     2 2
     2     1     3 2
     3     1     4 1
     4     1     6 1
     5     4     5 1
     6     6     7 ar
     7     6    11 ar
     8     7     8 ar
     9     8     9 ar
    10     9    10 ar
    11     9    12 1
    12    10    11 ar
    13    12    13 ar
    14    12    21 ar
    15    13    14 ar
    16    13    18 ar
    17    14    15 ar
    18    15    16 ar
    19    15    22 1
    20    16    17 ar
    21    17    18 ar
    22    18    19 ar
    23    19    20 ar
    24    20    21 ar
    25    22    23 ar
    26    22    27 ar
    27    23    24 ar
    28    24    25 ar
    29    24    32 1
    30    25    26 ar
    31    25    30 1
    32    26    27 ar
    33    26    28 1
    34    28    29 1
    35    30    31 1
    36    32    33 1
    37     4    34 1
    38     5    35 1
    39     5    36 1
    40     5    37 1
    41     7    38 1
    42     8    39 1
    43    10    40 1
    44    11    41 1
    45    16    42 1
    46    19    43 1
    47    20    44 1
    48    21    45 1
    49    23    46 1
    50    27    47 1
    51    29    48 1
    52    29    49 1
    53    29    50 1
    54    31    51 1
    55    31    52 1
    56    31    53 1
    57    33    54 1
    58    33    55 1
    59    33    56 1
@<TRIPOS>SUBSTRUCTURE
     1 NVB         1 TEMP              0 ****  ****    0 ROOT
