@<TRIPOS>MOLECULE
NVC
   52    54     1     0     0
SMALL
bcc


@<TRIPOS>ATOM
      1 O28         0.5960    1.0770   -0.4720 o         1 NVC     -0.583100
      2 C27         1.5650    0.3620   -0.1490 c         1 NVC      0.674100
      3 C29         2.0250    0.3880    1.3220 c3        1 NVC     -0.154700
      4 C40         1.0660   -0.4500    2.1580 c3        1 NVC     -0.084400
      5 C43         1.3350   -1.9350    2.0270 c3        1 NVC     -0.090400
      6 C46         0.4600   -2.7250    2.9790 c3        1 NVC     -0.076400
      7 C49         0.7130   -4.2050    2.8500 c3        1 NVC     -0.097100
      8 C31         1.9630    1.8700    1.7150 c3        1 NVC      0.089800
      9 N34         2.5570    2.1620    3.0730 n4        1 NVC     -0.402700
     10 O35         2.0100    3.2760    3.6170 oh        1 NVC     -0.353300
     11 C37         4.0800    2.2500    2.9900 c         1 NVC      0.544900
     12 O39         4.5760    3.3550    2.9720 o         1 NVC     -0.364100
     13 N17         2.2670   -0.3720   -1.0710 n         1 NVC     -0.447800
     14 C15         1.7510   -0.5950   -2.4220 c3        1 NVC      0.105400
     15 C24         2.8180   -1.4390   -3.1600 c3        1 NVC     -0.083400
     16 C21         3.7580   -1.9740   -2.0860 c3        1 NVC     -0.088400
     17 C18         3.3890   -1.2480   -0.7810 c3        1 NVC      0.086000
     18 C3          0.4300   -1.3120   -2.4460 cc        1 NVC      0.503600
     19 O1         -0.2750   -1.1890   -3.6730 os        1 NVC     -0.298700
     20 C6         -1.4450   -1.9220   -3.4620 ca        1 NVC      0.038100
     21 C5         -1.4010   -2.4510   -2.1260 ca        1 NVC      0.050400
     22 N4         -0.1900   -2.0340   -1.5230 nd        1 NVC     -0.562100
     23 C7         -2.4990   -2.1430   -4.3370 ca        1 NVC     -0.107000
     24 C9         -3.5450   -2.9250   -3.8460 ca        1 NVC     -0.099000
     25 C11        -3.5270   -3.4530   -2.5460 ca        1 NVC     -0.138000
     26 C13        -2.4680   -3.2310   -1.6680 ca        1 NVC     -0.067000
     27 H29         3.0720   -0.0020    1.4300 hc        1 NVC      0.064700
     28 H40         1.1440   -0.1650    3.2410 hc        1 NVC      0.058200
     29 H40A        0.0100   -0.2320    1.8340 hc        1 NVC      0.058200
     30 H43         2.4140   -2.1510    2.2450 hc        1 NVC      0.057700
     31 H43A        1.1260   -2.2640    0.9740 hc        1 NVC      0.057700
     32 H46        -0.6190   -2.5070    2.7600 hc        1 NVC      0.044200
     33 H46A        0.6580   -2.4000    4.0350 hc        1 NVC      0.044200
     34 H49         1.7770   -4.4480    3.0860 hc        1 NVC      0.043700
     35 H49A        0.0580   -4.7700    3.5560 hc        1 NVC      0.043700
     36 H49B        0.4950   -4.5530    1.8110 hc        1 NVC      0.043700
     37 H31         0.8770    2.1980    1.7330 hx        1 NVC      0.134200
     38 H31A        2.5110    2.5030    0.9620 hx        1 NVC      0.134200
     39 HO35        2.3090    4.0610    3.0990 ho        1 NVC      0.477000
     40 H37         4.5530    1.2440    2.9500 hx        1 NVC      0.142200
     41 H15         1.5960    0.4080   -2.9210 h1        1 NVC      0.109700
     42 H24         3.3680   -0.7880   -3.8850 hc        1 NVC      0.079700
     43 H24A        2.3360   -2.2670   -3.7360 hc        1 NVC      0.079700
     44 H21         3.6290   -3.0780   -1.9580 hc        1 NVC      0.070700
     45 H21A        4.8250   -1.7780   -2.3520 hc        1 NVC      0.070700
     46 H18         4.2540   -0.6260   -0.4190 h1        1 NVC      0.043700
     47 H18A        3.1220   -1.9890    0.0230 h1        1 NVC      0.043700
     48 H7         -2.5060   -1.7260   -5.3520 ha        1 NVC      0.161000
     49 H9         -4.4090   -3.1320   -4.4970 ha        1 NVC      0.149000
     50 H11        -4.3790   -4.0650   -2.2100 ha        1 NVC      0.146000
     51 H13        -2.4680   -3.6530   -0.6540 ha        1 NVC      0.151000
     52 H341        2.2920    1.3960    3.7330 hn        1 NVC      0.497800
@<TRIPOS>BOND
     1    1    2 2   
     2    2    3 1   
     3    2   13 1   
     4    3    4 1   
     5    3    8 1   
     6    3   27 1   
     7    4    5 1   
     8    4   28 1   
     9    4   29 1   
    10    5    6 1   
    11    5   30 1   
    12    5   31 1   
    13    6    7 1   
    14    6   32 1   
    15    6   33 1   
    16    7   34 1   
    17    7   35 1   
    18    7   36 1   
    19    8    9 1   
    20    8   37 1   
    21    8   38 1   
    22    9   10 1   
    23    9   11 1   
    24    9   52 1   
    25   10   39 1   
    26   11   12 2   
    27   11   40 1   
    28   13   14 1   
    29   13   17 1   
    30   14   15 1   
    31   14   18 1   
    32   14   41 1   
    33   15   16 1   
    34   15   42 1   
    35   15   43 1   
    36   16   17 1   
    37   16   44 1   
    38   16   45 1   
    39   17   46 1   
    40   17   47 1   
    41   18   19 1   
    42   18   22 2   
    43   19   20 1   
    44   20   21 ar  
    45   20   23 ar  
    46   21   22 1   
    47   21   26 ar  
    48   23   24 ar  
    49   23   48 1   
    50   24   25 ar  
    51   24   49 1   
    52   25   26 ar  
    53   25   50 1   
    54   26   51 1   
@<TRIPOS>SUBSTRUCTURE
     1 NVC         1 TEMP              0 ****  ****    0 ROOT
