@<TRIPOS>MOLECULE
molecule
   70    73     1     0     0
SMALL
bcc


@<TRIPOS>ATOM
      1 C1           0.0000     0.0000     0.0000 c3         1 NVE      -0.122100
      2 C2           1.5300     0.0000     0.0000 c3         1 NVE       0.252800
      3 N3           2.0180     0.0000     1.3810 na         1 NVE      -0.837000
      4 C4           2.2530    -1.2010     2.0470 ca         1 NVE       0.666200
      5 C5           1.5470    -1.5310     3.2010 ca         1 NVE      -0.069700
      6 N6           0.5210    -0.7240     3.6860 n          1 NVE      -0.362000
      7 C7          -0.6610    -1.4120     4.2110 c3         1 NVE       0.088300
      8 C8           0.5010     0.6010     3.7220 c          1 NVE       0.727100
      9 O9          -0.4810     1.1270     4.2080 o          1 NVE      -0.643500
     10 C10          1.5580     1.4870     3.2260 ca         1 NVE      -0.276900
     11 C11          1.8840     2.6520     3.9280 ca         1 NVE      -0.024000
     12 C12          2.8480     3.4920     3.3990 ca         1 NVE      -0.236600
     13 C13          3.4550     3.1610     2.2020 ca         1 NVE       0.463200
     14 N14          3.1500     2.0460     1.5670 nb         1 NVE      -0.711000
     15 C15          2.2570     1.1950     2.0400 ca         1 NVE       0.712200
     16 C16          1.8600    -2.7090     3.8700 ca         1 NVE      -0.115000
     17 C17          2.8410    -3.5340     3.3380 ca         1 NVE      -0.248300
     18 C18          3.4750    -3.1620     2.1700 ca         1 NVE       0.422200
     19 N19          3.1720    -2.0300     1.5670 nb         1 NVE      -0.688000
     20 C20          5.6800     4.4200    10.0050 c3         1 NVE      -0.095100
     21 C21          6.0860     5.7330    10.6750 c3         1 NVE       0.196900
     22 O22          5.5860     6.8320     9.9100 os         1 NVE      -0.593200
     23 P23          5.8260     8.3700    10.3240 p5         1 NVE       1.362300
     24 C24          5.1630     9.4600     9.0220 c3         1 NVE      -0.013800
     25 C26          5.4820     8.0490     7.1350 ca         1 NVE       0.113100
     26 C27          4.5140     7.2100     7.6690 ca         1 NVE      -0.163500
     27 C28          4.1620     6.0520     7.0060 ca         1 NVE      -0.088000
     28 C29          4.7730     5.7270     5.8080 ca         1 NVE      -0.121300
     29 C30          5.7380     6.5600     5.2730 ca         1 NVE      -0.088000
     30 C31          6.0900     7.7230     5.9320 ca         1 NVE      -0.163500
     31 C32          4.3870     4.4620     5.0850 c3         1 NVE      -0.028100
     32 C33          3.2340     4.7570     4.1230 c3         1 NVE      -0.026100
     33 O34          5.0740     8.6760    11.7140 os         1 NVE      -0.593200
     34 C35          5.4400     8.0570    12.9490 c3         1 NVE       0.196900
     35 C36          4.5270     8.5690    14.0650 c3         1 NVE      -0.095100
     36 O37          7.2770     8.6170    10.4820 o          1 NVE      -0.783300
     37 H1          -0.3610     0.8490     0.5670 hc         1 NVE       0.041367
     38 H2          -0.3610    -0.9160     0.4510 hc         1 NVE       0.041367
     39 H3          -0.3610     0.0670    -1.0190 hc         1 NVE       0.041367
     40 H4           1.8910    -0.8850    -0.5110 h1         1 NVE       0.062700
     41 H5           1.8910     0.8850    -0.5110 h1         1 NVE       0.062700
     42 H6          -0.5800    -1.4990     5.2880 h1         1 NVE       0.052033
     43 H7          -1.5500    -0.8460     3.9610 h1         1 NVE       0.052033
     44 H8          -0.7280    -2.4010     3.7740 h1         1 NVE       0.052033
     45 H9           1.3940     2.8900     4.8650 ha         1 NVE       0.157000
     46 H10          4.2090     3.8190     1.7880 h4         1 NVE       0.028100
     47 H11          1.3470    -2.9790     4.7860 ha         1 NVE       0.147000
     48 H12          3.0960    -4.4670     3.8270 ha         1 NVE       0.143000
     49 H13          4.2410    -3.8030     1.7510 h4         1 NVE       0.028100
     50 H14          4.6090     4.4130     9.8430 hc         1 NVE       0.047533
     51 H15          6.1900     4.3260     9.0540 hc         1 NVE       0.047533
     52 H16          5.9530     3.5890    10.6450 hc         1 NVE       0.047533
     53 H17          7.1670     5.7930    10.7280 h1         1 NVE       0.035950
     54 H18          5.6730     5.7720    11.6760 h1         1 NVE       0.035950
     55 H19          5.3250    10.4940     9.3000 h1         1 NVE       0.088700
     56 H20          4.1010     9.2800     8.9060 h1         1 NVE       0.088700
     57 H21          4.0340     7.4640     8.6070 ha         1 NVE       0.135000
     58 H22          3.4060     5.3970     7.4230 ha         1 NVE       0.133000
     59 H23          6.2140     6.3050     4.3340 ha         1 NVE       0.133000
     60 H24          6.8460     8.3760     5.5130 ha         1 NVE       0.135000
     61 H25          5.2380     4.0920     4.5260 hc         1 NVE       0.050700
     62 H26          4.0750     3.7160     5.8050 hc         1 NVE       0.050700
     63 H27          3.5460     5.5030     3.4030 hc         1 NVE       0.056200
     64 H28          2.3830     5.1270     4.6810 hc         1 NVE       0.056200
     65 H29          5.3350     6.9830    12.8600 h1         1 NVE       0.035950
     66 H30          6.4690     8.3010    13.1840 h1         1 NVE       0.035950
     67 H31          4.7870     8.0800    14.9960 hc         1 NVE       0.047533
     68 H32          3.4960     8.3490    13.8180 hc         1 NVE       0.047533
     69 H33          4.6530     9.6390    14.1720 hc         1 NVE       0.047533
     70 O25          5.8300     9.1890     7.7870 os         1 NVE      -0.280900
@<TRIPOS>BOND
     1    20    21 1
     2    21    22 1
     3    27    26 ar
     4    27    28 ar
     5    26    25 ar
     6    34    33 1
     7    34    35 1
     8    32    31 1
     9    32    12 1
    10    13    14 ar
    11    13    12 ar
    12    22    23 1
    13    33    23 1
    14    14    15 ar
    15    70    25 1
    16    70    24 1
    17    28    31 1
    18    28    29 ar
    19    25    30 ar
    20    12    11 ar
    21     1     2 1
    22    23    24 1
    23    23    36 2
    24    29    30 ar
    25    15     3 1
    26    15    10 ar
    27     2     3 1
    28    11    10 ar
    29     3     4 1
    30    10     8 1
    31    19     4 ar
    32    19    18 ar
    33     4     5 ar
    34    18    17 ar
    35     8     9 2
    36     8     6 1
    37     5     6 1
    38     5    16 ar
    39     6     7 1
    40    17    16 ar
    41     1    37 1
    42     1    38 1
    43     1    39 1
    44     2    40 1
    45     2    41 1
    46     7    42 1
    47     7    43 1
    48     7    44 1
    49    11    45 1
    50    13    46 1
    51    16    47 1
    52    17    48 1
    53    18    49 1
    54    20    50 1
    55    20    51 1
    56    20    52 1
    57    21    53 1
    58    21    54 1
    59    24    55 1
    60    24    56 1
    61    26    57 1
    62    27    58 1
    63    29    59 1
    64    30    60 1
    65    31    61 1
    66    31    62 1
    67    32    63 1
    68    32    64 1
    69    34    65 1
    70    34    66 1
    71    35    67 1
    72    35    68 1
    73    35    69 1
@<TRIPOS>SUBSTRUCTURE
     1 NVE         1 TEMP              0 ****  ****    0 ROOT
