@<TRIPOS>MOLECULE
NVE
   70    73     1     0     0
SMALL
bcc


@<TRIPOS>ATOM
      1 C1           0.0000     0.0000     0.0000 c3         1 NVE      -0.026100
      2 C2           1.5300     0.0000     0.0000 c3         1 NVE       0.181800
      3 N3           2.0180     0.0000     1.3810 na         1 NVE      -0.477000
      4 C4           2.2530    -1.2010     2.0470 ca         1 NVE       0.495200
      5 C5           1.5470    -1.5310     3.2010 ca         1 NVE      -0.206700
      6 N6           0.5210    -0.7240     3.6860 n          1 NVE       0.042000
      7 C7          -0.6610    -1.4120     4.2110 c3         1 NVE       0.048300
      8 C8           0.5010     0.6010     3.7220 c          1 NVE       0.638100
      9 O9          -0.4810     1.1270     4.2080 o          1 NVE      -0.686500
     10 C10          1.5580     1.4870     3.2260 ca         1 NVE      -0.279900
     11 C11          1.8840     2.6520     3.9280 ca         1 NVE       0.009000
     12 C12          2.8480     3.4920     3.3990 ca         1 NVE      -0.236600
     13 C13          3.4550     3.1610     2.2020 ca         1 NVE       0.441200
     14 N14          3.1500     2.0460     1.5670 nb         1 NVE      -0.593000
     15 C15          2.2570     1.1950     2.0400 ca         1 NVE       0.531200
     16 C16          1.8600    -2.7090     3.8700 ca         1 NVE      -0.089000
     17 C17          2.8410    -3.5340     3.3380 ca         1 NVE      -0.210300
     18 C18          3.4750    -3.1620     2.1700 ca         1 NVE       0.405200
     19 N19          3.1720    -2.0300     1.5670 nb         1 NVE      -0.568000
     20 C20          5.6800     4.4200    10.0050 c3         1 NVE      -0.010100
     21 C21          6.0860     5.7330    10.6750 c3         1 NVE       0.288400
     22 O22          5.5860     6.8320     9.9100 os         1 NVE      -0.491200
     23 P23          5.8260     8.3700    10.3240 p5         1 NVE       0.913300
     24 C24          5.1630     9.4600     9.0220 c3         1 NVE       0.242200
     25 C26          5.4820     8.0490     7.1350 ca         1 NVE       0.128100
     26 C27          4.5140     7.2100     7.6690 ca         1 NVE      -0.154000
     27 C28          4.1620     6.0520     7.0060 ca         1 NVE      -0.056500
     28 C29          4.7730     5.7270     5.8080 ca         1 NVE      -0.136300
     29 C30          5.7380     6.5600     5.2730 ca         1 NVE      -0.056500
     30 C31          6.0900     7.7230     5.9320 ca         1 NVE      -0.154000
     31 C32          4.3870     4.4620     5.0850 c3         1 NVE       0.039900
     32 C33          3.2340     4.7570     4.1230 c3         1 NVE       0.040900
     33 O34          5.0740     8.6760    11.7140 os         1 NVE      -0.491200
     34 C35          5.4400     8.0570    12.9490 c3         1 NVE       0.288400
     35 C36          4.5270     8.5690    14.0650 c3         1 NVE      -0.010100
     36 O37          7.2770     8.6170    10.4820 o          1 NVE      -0.631300
     37 H1          -0.3610     0.8490     0.5670 hc         1 NVE       0.008367
     38 H2          -0.3610    -0.9160     0.4510 hc         1 NVE       0.008367
     39 H3          -0.3610     0.0670    -1.0190 hc         1 NVE       0.008367
     40 H4           1.8910    -0.8850    -0.5110 h1         1 NVE       0.031200
     41 H5           1.8910     0.8850    -0.5110 h1         1 NVE       0.031200
     42 H6          -0.5800    -1.4990     5.2880 h1         1 NVE       0.022367
     43 H7          -1.5500    -0.8460     3.9610 h1         1 NVE       0.022367
     44 H8          -0.7280    -2.4010     3.7740 h1         1 NVE       0.022367
     45 H9           1.3940     2.8900     4.8650 ha         1 NVE       0.126000
     46 H10          4.2090     3.8190     1.7880 h4         1 NVE      -0.016900
     47 H11          1.3470    -2.9790     4.7860 ha         1 NVE       0.121000
     48 H12          3.0960    -4.4670     3.8270 ha         1 NVE       0.116000
     49 H13          4.2410    -3.8030     1.7510 h4         1 NVE      -0.016900
     50 H14          4.6090     4.4130     9.8430 hc         1 NVE       0.006200
     51 H15          6.1900     4.3260     9.0540 hc         1 NVE       0.006200
     52 H16          5.9530     3.5890    10.6450 hc         1 NVE       0.006200
     53 H17          7.1670     5.7930    10.7280 h1         1 NVE      -0.010050
     54 H18          5.6730     5.7720    11.6760 h1         1 NVE      -0.010050
     55 H19          5.3250    10.4940     9.3000 h1         1 NVE       0.041200
     56 H20          4.1010     9.2800     8.9060 h1         1 NVE       0.041200
     57 H21          4.0340     7.4640     8.6070 ha         1 NVE       0.119000
     58 H22          3.4060     5.3970     7.4230 ha         1 NVE       0.104000
     59 H23          6.2140     6.3050     4.3340 ha         1 NVE       0.104000
     60 H24          6.8460     8.3760     5.5130 ha         1 NVE       0.119000
     61 H25          5.2380     4.0920     4.5260 hc         1 NVE       0.018700
     62 H26          4.0750     3.7160     5.8050 hc         1 NVE       0.018700
     63 H27          3.5460     5.5030     3.4030 hc         1 NVE       0.023200
     64 H28          2.3830     5.1270     4.6810 hc         1 NVE       0.023200
     65 H29          5.3350     6.9830    12.8600 h1         1 NVE      -0.010050
     66 H30          6.4690     8.3010    13.1840 h1         1 NVE      -0.010050
     67 H31          4.7870     8.0800    14.9960 hc         1 NVE       0.006200
     68 H32          3.4960     8.3490    13.8180 hc         1 NVE       0.006200
     69 H33          4.6530     9.6390    14.1720 hc         1 NVE       0.006200
     70 O25          5.8300     9.1890     7.7870 os         1 NVE      -0.262900
@<TRIPOS>BOND
     1     1     2 1   
     2     1    37 1   
     3     1    38 1   
     4     1    39 1   
     5     2     3 1   
     6     2    40 1   
     7     2    41 1   
     8     3     4 1   
     9     3    15 1   
    10     4     5 ar  
    11     4    19 ar  
    12     5     6 1   
    13     5    16 ar  
    14     6     7 1   
    15     6     8 1   
    16     7    42 1   
    17     7    43 1   
    18     7    44 1   
    19     8     9 2   
    20     8    10 1   
    21    10    11 ar  
    22    10    15 ar  
    23    11    12 ar  
    24    11    45 1   
    25    12    13 ar  
    26    12    32 1   
    27    13    14 ar  
    28    13    46 1   
    29    14    15 ar  
    30    16    17 ar  
    31    16    47 1   
    32    17    18 ar  
    33    17    48 1   
    34    18    19 ar  
    35    18    49 1   
    36    20    21 1   
    37    20    50 1   
    38    20    51 1   
    39    20    52 1   
    40    21    22 1   
    41    21    53 1   
    42    21    54 1   
    43    22    23 1   
    44    23    24 1   
    45    23    33 1   
    46    23    36 2   
    47    24    55 1   
    48    24    56 1   
    49    24    70 1   
    50    25    26 ar  
    51    25    30 ar  
    52    25    70 1   
    53    26    27 ar  
    54    26    57 1   
    55    27    28 ar  
    56    27    58 1   
    57    28    29 ar  
    58    28    31 1   
    59    29    30 ar  
    60    29    59 1   
    61    30    60 1   
    62    31    32 1   
    63    31    61 1   
    64    31    62 1   
    65    32    63 1   
    66    32    64 1   
    67    33    34 1   
    68    34    35 1   
    69    34    65 1   
    70    34    66 1   
    71    35    67 1   
    72    35    68 1   
    73    35    69 1   
@<TRIPOS>SUBSTRUCTURE
     1 NVE         1 TEMP              0 ****  ****    0 ROOT
