@<TRIPOS>MOLECULE
molecule
   53    56     1     0     0
SMALL
bcc


@<TRIPOS>ATOM
      1 OAC          0.0000     0.0000     0.0000 o          1 NVG      -0.540500
      2 CAV          1.2200     0.0000     0.0000 c          1 NVG       0.827900
      3 NAO          1.8750     0.0000     1.1590 nc         1 NVG      -0.636100
      4 CAT          3.2020    -0.0000     1.1880 cd         1 NVG       0.572500
      5 NAA          3.8670    -0.0010     2.3910 nz         1 NVG      -0.740600
      6 CAF          3.9250    -0.0020    -0.0230 cd         1 NVG      -0.434600
      7 CAG          3.2440    -0.0030    -1.1930 cc         1 NVG       0.141600
      8 NBD          1.8820    -0.0060    -1.1720 n          1 NVG      -0.316000
      9 CBC          1.1330    -0.0130    -2.4310 c3         1 NVG       0.294500
     10 OAS          0.1910     1.0720    -2.4570 os         1 NVG      -0.396600
     11 CBA          0.2750    -1.2980    -2.5400 c3         1 NVG       0.079100
     12 OAE          1.0270    -2.3730    -3.1070 oh         1 NVG      -0.580800
     13 CAZ         -0.8420    -0.8240    -3.5100 c3         1 NVG       0.108100
     14 OAD         -0.4190    -0.9430    -4.8700 oh         1 NVG      -0.575800
     15 CBB         -1.0120     0.6590    -3.1150 c3         1 NVG       0.119100
     16 CAN         -1.2330     1.5080    -4.3690 c3         1 NVG       0.113000
     17 NAQ         -1.3840     2.9130    -3.9870 ns         1 NVG      -0.591900
     18 CAU         -1.5910     3.8510    -4.9330 c          1 NVG       0.657100
     19 OAB         -1.6530     3.5300    -6.1010 o          1 NVG      -0.605100
     20 CAL         -1.7450     5.2980    -4.5390 c3         1 NVG      -0.150400
     21 CAM         -1.9670     6.1460    -5.7930 c3         1 NVG      -0.062700
     22 CAW         -2.1210     7.5930    -5.4000 cc         1 NVG       0.409800
     23 NAR         -1.3740     8.6180    -5.8910 na         1 NVG      -0.261300
     24 CAY         -1.8200     9.7770    -5.2880 ca         1 NVG      -0.094200
     25 CAK         -1.4590    11.1140    -5.3780 ca         1 NVG      -0.128000
     26 CAI         -2.1210    12.0540    -4.6170 ca         1 NVG      -0.110000
     27 CAH         -3.1470    11.6700    -3.7630 ca         1 NVG      -0.143000
     28 CAJ         -3.5150    10.3590    -3.6610 ca         1 NVG      -0.071000
     29 CAX         -2.8580     9.3900    -4.4230 ca         1 NVG       0.091400
     30 NAP         -2.9920     8.0440    -4.5450 nd         1 NVG      -0.608100
     31 HAA1         4.5530     0.7280     2.3940 hn         1 NVG       0.477467
     32 HAA2         4.3190    -0.8840     2.5220 hn         1 NVG       0.477467
     33 HAF          5.0080    -0.0000    -0.0160 ha         1 NVG       0.175000
     34 HAG          3.7770    -0.0060    -2.1360 h4         1 NVG       0.207000
     35 HBC          1.8080     0.0580    -3.2760 h2         1 NVG       0.115700
     36 HBA         -0.1390    -1.5680    -1.5770 h1         1 NVG       0.083700
     37 HBB         -1.8530     0.7640    -2.4400 h1         1 NVG       0.089700
     38 HAE          0.7930    -3.1800    -2.6790 ho         1 NVG       0.419000
     39 HAZ         -1.7590    -1.3740    -3.3350 h1         1 NVG       0.072700
     40 HAD         -0.9100    -1.6280    -5.2930 ho         1 NVG       0.425000
     41 HAN1        -2.1300     1.1740    -4.8770 h1         1 NVG       0.075200
     42 HAN2        -0.3830     1.4020    -5.0310 h1         1 NVG       0.075200
     43 HAQ         -1.3550     3.1750    -3.0220 hn         1 NVG       0.319500
     44 HAL1        -2.5950     5.4030    -3.8770 hc         1 NVG       0.075200
     45 HAL2        -0.8480     5.6310    -4.0310 hc         1 NVG       0.075200
     46 HAM1        -2.8630     5.8120    -6.3010 hc         1 NVG       0.075200
     47 HAM2        -1.1160     6.0400    -6.4550 hc         1 NVG       0.075200
     48 HAR         -0.7270     8.5620    -6.6520 hn         1 NVG       0.303700
     49 HAK         -0.6600    11.4190    -6.0430 ha         1 NVG       0.128000
     50 HAI         -1.8410    13.0980    -4.6860 ha         1 NVG       0.136000
     51 HAH         -3.6590    12.4180    -3.1700 ha         1 NVG       0.136000
     52 HAJ         -4.3160    10.0710    -2.9910 ha         1 NVG       0.142000
     53 HAA3         3.2130     0.1410     3.1350 hn         1 NVG       0.477467
@<TRIPOS>BOND
     1     1     2 2
     2     2     3 1
     3     2     8 1
     4     3     4 2
     5     4     5 1
     6     4     6 1
     7     5    31 1
     8     5    32 1
     9     6     7 2
    10     6    33 1
    11     7     8 1
    12     7    34 1
    13     8     9 1
    14     9    10 1
    15     9    11 1
    16     9    35 1
    17    10    15 1
    18    11    12 1
    19    11    13 1
    20    11    36 1
    21    12    38 1
    22    13    14 1
    23    13    15 1
    24    13    39 1
    25    14    40 1
    26    15    16 1
    27    15    37 1
    28    16    17 1
    29    16    41 1
    30    16    42 1
    31    17    18 1
    32    17    43 1
    33    18    19 2
    34    18    20 1
    35    20    21 1
    36    20    44 1
    37    20    45 1
    38    21    22 1
    39    21    46 1
    40    21    47 1
    41    22    23 1
    42    22    30 2
    43    23    24 1
    44    23    48 1
    45    24    25 ar
    46    24    29 ar
    47    25    26 ar
    48    25    49 1
    49    26    27 ar
    50    26    50 1
    51    27    28 ar
    52    27    51 1
    53    28    29 ar
    54    28    52 1
    55    29    30 1
    56    53     5 1
@<TRIPOS>SUBSTRUCTURE
     1 NVG         1 TEMP              0 ****  ****    0 ROOT
