@<TRIPOS>MOLECULE
NVG
   53    56     1     0     0
SMALL
bcc


@<TRIPOS>ATOM
      1 OAC          0.0000     0.0000     0.0000 o          1 NVG      -0.585500
      2 CAV          1.2200     0.0000     0.0000 c          1 NVG       0.677900
      3 NAO          1.8750     0.0000     1.1590 nc         1 NVG      -0.482100
      4 CAT          3.2020    -0.0000     1.1880 cd         1 NVG       0.265500
      5 NAA          3.8670    -0.0010     2.3910 nz         1 NVG       0.201400
      6 CAF          3.9250    -0.0020    -0.0230 cd         1 NVG      -0.381600
      7 CAG          3.2440    -0.0030    -1.1930 cc         1 NVG       0.007600
      8 NBD          1.8820    -0.0060    -1.1720 n          1 NVG       0.129000
      9 CBC          1.1330    -0.0130    -2.4310 c3         1 NVG       0.201500
     10 OAS          0.1910     1.0720    -2.4570 os         1 NVG      -0.388600
     11 CBA          0.2750    -1.2980    -2.5400 c3         1 NVG       0.109100
     12 OAE          1.0270    -2.3730    -3.1070 oh         1 NVG      -0.560800
     13 CAZ         -0.8420    -0.8240    -3.5100 c3         1 NVG       0.154100
     14 OAD         -0.4190    -0.9430    -4.8700 oh         1 NVG      -0.556800
     15 CBB         -1.0120     0.6590    -3.1150 c3         1 NVG       0.163100
     16 CAN         -1.2330     1.5080    -4.3690 c3         1 NVG       0.039000
     17 NAQ         -1.3840     2.9130    -3.9870 ns         1 NVG      -0.206900
     18 CAU         -1.5910     3.8510    -4.9330 c          1 NVG       0.572100
     19 OAB         -1.6530     3.5300    -6.1010 o          1 NVG      -0.642100
     20 CAL         -1.7450     5.2980    -4.5390 c3         1 NVG      -0.092400
     21 CAM         -1.9670     6.1460    -5.7930 c3         1 NVG       0.006300
     22 CAW         -2.1210     7.5930    -5.4000 cc         1 NVG       0.190800
     23 NAR         -1.3740     8.6180    -5.8910 na         1 NVG       0.270700
     24 CAY         -1.8200     9.7770    -5.2880 ca         1 NVG      -0.277200
     25 CAK         -1.4590    11.1140    -5.3780 ca         1 NVG      -0.087000
     26 CAI         -2.1210    12.0540    -4.6170 ca         1 NVG      -0.086000
     27 CAH         -3.1470    11.6700    -3.7630 ca         1 NVG      -0.115000
     28 CAJ         -3.5150    10.3590    -3.6610 ca         1 NVG      -0.041000
     29 CAX         -2.8580     9.3900    -4.4230 ca         1 NVG       0.064400
     30 NAP         -2.9920     8.0440    -4.5450 nd         1 NVG      -0.524100
     31 HAA1         4.5530     0.7280     2.3940 hn         1 NVG       0.222467
     32 HAA2         4.3190    -0.8840     2.5220 hn         1 NVG       0.222467
     33 HAF          5.0080    -0.0000    -0.0160 ha         1 NVG       0.153000
     34 HAG          3.7770    -0.0060    -2.1360 h4         1 NVG       0.163000
     35 HBC          1.8080     0.0580    -3.2760 h2         1 NVG       0.074700
     36 HBA         -0.1390    -1.5680    -1.5770 h1         1 NVG       0.050700
     37 HBB         -1.8530     0.7640    -2.4400 h1         1 NVG       0.050700
     38 HAE          0.7930    -3.1800    -2.6790 ho         1 NVG       0.404000
     39 HAZ         -1.7590    -1.3740    -3.3350 h1         1 NVG       0.030700
     40 HAD         -0.9100    -1.6280    -5.2930 ho         1 NVG       0.410000
     41 HAN1        -2.1300     1.1740    -4.8770 h1         1 NVG       0.046200
     42 HAN2        -0.3830     1.4020    -5.0310 h1         1 NVG       0.046200
     43 HAQ         -1.3550     3.1750    -3.0220 hn         1 NVG       0.178500
     44 HAL1        -2.5950     5.4030    -3.8770 hc         1 NVG       0.038700
     45 HAL2        -0.8480     5.6310    -4.0310 hc         1 NVG       0.038700
     46 HAM1        -2.8630     5.8120    -6.3010 hc         1 NVG       0.035700
     47 HAM2        -1.1160     6.0400    -6.4550 hc         1 NVG       0.035700
     48 HAR         -0.7270     8.5620    -6.6520 hn         1 NVG       0.127700
     49 HAK         -0.6600    11.4190    -6.0430 ha         1 NVG       0.101000
     50 HAI         -1.8410    13.0980    -4.6860 ha         1 NVG       0.106000
     51 HAH         -3.6590    12.4180    -3.1700 ha         1 NVG       0.106000
     52 HAJ         -4.3160    10.0710    -2.9910 ha         1 NVG       0.109000
     53 HAA3         3.2130     0.1410     3.1350 hn         1 NVG       0.222467
@<TRIPOS>BOND
     1     1     2 2   
     2     2     3 1   
     3     2     8 1   
     4     3     4 2   
     5     4     5 1   
     6     4     6 1   
     7     5    31 1   
     8     5    32 1   
     9     5    53 1   
    10     6     7 2   
    11     6    33 1   
    12     7     8 1   
    13     7    34 1   
    14     8     9 1   
    15     9    10 1   
    16     9    11 1   
    17     9    35 1   
    18    10    15 1   
    19    11    12 1   
    20    11    13 1   
    21    11    36 1   
    22    12    38 1   
    23    13    14 1   
    24    13    15 1   
    25    13    39 1   
    26    14    40 1   
    27    15    16 1   
    28    15    37 1   
    29    16    17 1   
    30    16    41 1   
    31    16    42 1   
    32    17    18 1   
    33    17    43 1   
    34    18    19 2   
    35    18    20 1   
    36    20    21 1   
    37    20    44 1   
    38    20    45 1   
    39    21    22 1   
    40    21    46 1   
    41    21    47 1   
    42    22    23 1   
    43    22    30 2   
    44    23    24 1   
    45    23    48 1   
    46    24    25 ar  
    47    24    29 ar  
    48    25    26 ar  
    49    25    49 1   
    50    26    27 ar  
    51    26    50 1   
    52    27    28 ar  
    53    27    51 1   
    54    28    29 ar  
    55    28    52 1   
    56    29    30 1   
@<TRIPOS>SUBSTRUCTURE
     1 NVG         1 TEMP              0 ****  ****    0 ROOT
