@<TRIPOS>MOLECULE
NVI
   14    14     1     0     0
SMALL
bcc


@<TRIPOS>ATOM
      1 N1         -0.0420    0.0050    0.0390 na        1 NVI      0.041700
      2 C2          1.3370   -0.0070    0.0040 cc        1 NVI     -0.021600
      3 N3          1.8050   -0.0090    1.2960 na        1 NVI     -0.134100
      4 C4          0.7120    0.0020    2.1720 cc        1 NVI     -0.106300
      5 C5         -0.4480    0.0100    1.3870 cd        1 NVI     -0.120300
      6 C6         -0.8670    0.0100   -1.1100 c2        1 NVI     -0.135100
      7 C7         -2.2070   -0.0030   -1.0930 c2        1 NVI     -0.132000
      8 H2          1.9580   -0.0140   -0.9080 h5        1 NVI      0.263000
      9 HN3         2.7660   -0.0170    1.5610 hn        1 NVI      0.363700
     10 H4          0.8280    0.0030    3.2620 h4        1 NVI      0.239000
     11 H5         -1.5010    0.0200    1.6870 h4        1 NVI      0.235000
     12 H6         -0.2820    0.0260   -2.0530 h4        1 NVI      0.184000
     13 H71        -2.8270   -0.0200   -0.1860 ha        1 NVI      0.162500
     14 H72        -2.7630    0.0030   -2.0450 ha        1 NVI      0.162500
@<TRIPOS>BOND
     1    1    2 2   
     2    1    5 1   
     3    1    6 1   
     4    2    3 1   
     5    2    8 1   
     6    3    4 1   
     7    3    9 1   
     8    4    5 2   
     9    4   10 1   
    10    5   11 1   
    11    6    7 2   
    12    6   12 1   
    13    7   13 1   
    14    7   14 1   
@<TRIPOS>SUBSTRUCTURE
     1 NVI         1 TEMP              0 ****  ****    0 ROOT
