@<TRIPOS>MOLECULE
molecule
   14    14     1     0     0
SMALL
bcc


@<TRIPOS>ATOM
      1 N1           0.0000     0.0000     0.0000 na         1 NVI       0.102700
      2 C2           1.3140     0.0000     0.0000 cc         1 NVI      -0.034600
      3 N3           1.7430     0.0000     1.2800 na         1 NVI      -0.120100
      4 C4           0.6350    -0.0000     2.0840 cc         1 NVI      -0.104300
      5 C5          -0.4390     0.0060     1.2760 cd         1 NVI      -0.156300
      6 C6          -0.7980    -0.0010    -1.1190 c2         1 NVI      -0.162100
      7 C7          -2.1170    -0.0000    -0.9910 c2         1 NVI      -0.124000
      8 H2           1.9460    -0.0020    -0.8790 h5         1 NVI       0.256000
      9 HN3          2.6960    -0.0020     1.5850 hn         1 NVI       0.366700
     10 H4           0.6250     0.0010     3.1680 h4         1 NVI       0.236000
     11 H5          -1.4750     0.0070     1.5930 h4         1 NVI       0.231000
     12 H6          -0.3490    -0.0010    -2.1050 h4         1 NVI       0.195000
     13 H71         -2.7460    -0.0010    -1.8730 ha         1 NVI       0.157000
     14 H72         -2.5660     0.0000    -0.0050 ha         1 NVI       0.157000
@<TRIPOS>BOND
     1     1     2 2
     2     1     5 1
     3     1     6 1
     4     2     3 1
     5     2     8 1
     6     3     4 1
     7     3     9 1
     8     4     5 2
     9     4    10 1
    10     5    11 1
    11     6     7 2
    12     6    12 1
    13     7    13 1
    14     7    14 1
@<TRIPOS>SUBSTRUCTURE
     1 NVI         1 TEMP              0 ****  ****    0 ROOT
