@<TRIPOS>MOLECULE
molecule
   34    37     1     0     0
SMALL
bcc


@<TRIPOS>ATOM
      1 N1           0.0000     0.0000     0.0000 na         1 NVP      -0.805000
      2 CA          -0.7390     1.1090    -0.6090 cx         1 NVP       0.193500
      3 CB          -1.6830     0.7760    -1.7670 cx         1 NVP      -0.147900
      4 CC          -2.2540     1.1480    -0.3980 cx         1 NVP      -0.147900
      5 N3           2.0330    -0.0440    -1.1610 nb         1 NVP      -0.684000
      6 C4           3.3480    -0.1060    -1.2310 ca         1 NVP       0.424200
      7 C5           4.1190    -0.1370    -0.0870 ca         1 NVP      -0.245300
      8 C6           3.4950    -0.0800     1.1510 ca         1 NVP      -0.069300
      9 CD           4.3050    -0.1110     2.4210 c3         1 NVP      -0.050800
     10 C2           1.3930     0.0000     0.0000 ca         1 NVP       0.670200
     11 C7           2.1080     0.0000     1.1940 ca         1 NVP      -0.077700
     12 N8           1.4700     0.1100     2.4280 ns         1 NVP      -0.450100
     13 C9           0.3430    -0.4830     2.7900 c          1 NVP       0.728100
     14 OE          -0.0440    -0.2910     3.9270 o          1 NVP      -0.644500
     15 C10         -0.4790    -1.3480     1.9410 ca         1 NVP      -0.279900
     16 C15         -0.6790    -1.0560     0.5830 ca         1 NVP       0.719200
     17 C11         -1.1150    -2.4690     2.4900 ca         1 NVP      -0.023000
     18 C12         -1.9490    -3.2170     1.6750 ca         1 NVP      -0.283300
     19 C13         -2.1310    -2.8390     0.3580 ca         1 NVP       0.459200
     20 N14         -1.5040    -1.7920    -0.1450 nb         1 NVP      -0.718000
     21 HCA         -0.2650     2.0800    -0.6760 h1         1 NVP       0.100700
     22 HCB1        -1.7700     1.5380    -2.5330 hc         1 NVP       0.083450
     23 HCB2        -1.7470    -0.2730    -2.0320 hc         1 NVP       0.083450
     24 HCC1        -2.6680     0.3270     0.1750 hc         1 NVP       0.083450
     25 HCC2        -2.6900     2.1370    -0.3260 hc         1 NVP       0.083450
     26 HC4          3.8300    -0.1510    -2.2010 h4         1 NVP       0.029100
     27 HC5          5.1990    -0.1880    -0.1550 ha         1 NVP       0.144000
     28 HCD1         5.3480    -0.2770     2.1810 hc         1 NVP       0.051700
     29 HCD2         3.9490    -0.9130     3.0560 hc         1 NVP       0.051700
     30 HCD3         4.2000     0.8340     2.9400 hc         1 NVP       0.051700
     31 HN8          1.9090     0.6960     3.1100 hn         1 NVP       0.336500
     32 H11         -0.9570    -2.7450     3.5250 ha         1 NVP       0.158000
     33 H12         -2.4700    -4.0790     2.0730 ha         1 NVP       0.145000
     34 H13         -2.7830    -3.4240    -0.2780 h4         1 NVP       0.027100
@<TRIPOS>BOND
     1     1     2 1
     2     1    10 1
     3     1    16 1
     4     2     3 1
     5     2     4 1
     6     2    21 1
     7     3     4 1
     8     3    22 1
     9     3    23 1
    10     4    24 1
    11     4    25 1
    12     5     6 ar
    13     5    10 ar
    14     6     7 ar
    15     6    26 1
    16     7     8 ar
    17     7    27 1
    18     8     9 1
    19     8    11 ar
    20     9    28 1
    21     9    29 1
    22     9    30 1
    23    10    11 ar
    24    11    12 1
    25    12    13 1
    26    12    31 1
    27    13    14 2
    28    13    15 1
    29    15    16 ar
    30    15    17 ar
    31    16    20 ar
    32    17    18 ar
    33    17    32 1
    34    18    19 ar
    35    18    33 1
    36    19    20 ar
    37    19    34 1
@<TRIPOS>SUBSTRUCTURE
     1 NVP         1 TEMP              0 ****  ****    0 ROOT
