@<TRIPOS>MOLECULE
NVS
   33    35     1     0     0
SMALL
bcc


@<TRIPOS>ATOM
      1 N8           0.0000     0.0000     0.0000 n          1 NVS      -0.056000
      2 C9           1.3390     0.0000     0.0000 c          1 NVS       0.769600
      3 O10          2.0620     0.0000     1.1280 os         1 NVS      -0.274200
      4 C11          1.4710     0.3930     2.2840 ca         1 NVS       0.161100
      5 C12          0.0880     0.4130     2.3960 ca         1 NVS      -0.220300
      6 C13         -0.7750    -0.0020     1.2350 c3         1 NVS       0.122300
      7 O14          1.9240     0.0000    -1.0660 o          1 NVS      -0.668500
      8 C21          2.2570     0.7770     3.3600 ca         1 NVS      -0.162000
      9 C22          1.6630     1.1800     4.5450 ca         1 NVS       0.162100
     10 C23          0.2790     1.2000     4.6520 ca         1 NVS      -0.162000
     11 C24         -0.5030     0.8170     3.5800 ca         1 NVS      -0.035000
     12 O25          2.4320     1.5570     5.5990 oh         1 NVS      -0.497100
     13 C1          -0.6770     0.0090    -1.2270 ca         1 NVS      -0.117400
     14 C2          -1.0030     1.2140    -1.8320 ca         1 NVS      -0.036500
     15 C3          -1.6710     1.2220    -3.0410 ca         1 NVS      -0.173000
     16 C4          -2.0180     0.0250    -3.6490 ca         1 NVS       0.166100
     17 C5          -1.6940    -1.1810    -3.0450 ca         1 NVS      -0.173000
     18 C6          -1.0200    -1.1900    -1.8400 ca         1 NVS      -0.036500
     19 O7          -2.6760     0.0330    -4.8390 os         1 NVS      -0.306900
     20 C8          -3.0020    -1.2370    -5.4090 c3         1 NVS       0.244700
     21 H1          -1.5160     0.7800     1.1220 h1         1 NVS       0.036200
     22 H2          -1.0400    -1.0370     1.4180 h1         1 NVS       0.036200
     23 H3           3.3370     0.7620     3.2740 ha         1 NVS       0.133000
     24 H4          -0.1880     1.5140     5.5780 ha         1 NVS       0.119000
     25 H5          -1.5830     0.8320     3.6660 ha         1 NVS       0.108000
     26 H6           2.6570     0.7970     6.1110 ho         1 NVS       0.407000
     27 H7          -0.7320     2.1490    -1.3570 ha         1 NVS       0.107500
     28 H8          -1.9250     2.1630    -3.5140 ha         1 NVS       0.121500
     29 H9          -1.9630    -2.1160    -3.5220 ha         1 NVS       0.121500
     30 H10         -0.7660    -2.1320    -1.3680 ha         1 NVS       0.107500
     31 H11         -3.5210    -1.0890    -6.3480 h1         1 NVS      -0.001633
     32 H12         -3.6390    -1.7860    -4.7270 h1         1 NVS      -0.001633
     33 H13         -2.0920    -1.7990    -5.5840 h1         1 NVS      -0.001633
@<TRIPOS>BOND
     1     1     2 1   
     2     1     6 1   
     3     1    13 1   
     4     2     3 1   
     5     2     7 2   
     6     3     4 1   
     7     4     5 ar  
     8     4     8 ar  
     9     5     6 1   
    10     5    11 ar  
    11     6    21 1   
    12     6    22 1   
    13     8     9 ar  
    14     8    23 1   
    15     9    10 ar  
    16     9    12 1   
    17    10    11 ar  
    18    10    24 1   
    19    11    25 1   
    20    12    26 1   
    21    13    14 ar  
    22    13    18 ar  
    23    14    15 ar  
    24    14    27 1   
    25    15    16 ar  
    26    15    28 1   
    27    16    17 ar  
    28    16    19 1   
    29    17    18 ar  
    30    17    29 1   
    31    18    30 1   
    32    19    20 1   
    33    20    31 1   
    34    20    32 1   
    35    20    33 1   
@<TRIPOS>SUBSTRUCTURE
     1 NVS         1 TEMP              0 ****  ****    0 ROOT
