@<TRIPOS>MOLECULE
molecule
   33    35     1     0     0
SMALL
bcc


@<TRIPOS>ATOM
      1 N8           0.0000     0.0000     0.0000 n          1 NVS      -0.425000
      2 C9           1.3390     0.0000     0.0000 c          1 NVS       0.842600
      3 O10          2.0620     0.0000     1.1280 os         1 NVS      -0.296200
      4 C11          1.4710     0.3930     2.2840 ca         1 NVS       0.149100
      5 C12          0.0880     0.4130     2.3960 ca         1 NVS      -0.193300
      6 C13         -0.7750    -0.0020     1.2350 c3         1 NVS       0.162300
      7 O14          1.9240     0.0000    -1.0660 o          1 NVS      -0.606500
      8 C21          2.2570     0.7770     3.3600 ca         1 NVS      -0.166000
      9 C22          1.6630     1.1800     4.5450 ca         1 NVS       0.138100
     10 C23          0.2790     1.2000     4.6520 ca         1 NVS      -0.170000
     11 C24         -0.5030     0.8170     3.5800 ca         1 NVS      -0.079000
     12 O25          2.4320     1.5570     5.5990 oh         1 NVS      -0.515100
     13 C1          -0.6770     0.0090    -1.2270 ca         1 NVS       0.014600
     14 C2          -1.0030     1.2140    -1.8320 ca         1 NVS      -0.076000
     15 C3          -1.6710     1.2220    -3.0410 ca         1 NVS      -0.186500
     16 C4          -2.0180     0.0250    -3.6490 ca         1 NVS       0.151100
     17 C5          -1.6940    -1.1810    -3.0450 ca         1 NVS      -0.186500
     18 C6          -1.0200    -1.1900    -1.8400 ca         1 NVS      -0.076000
     19 O7          -2.6760     0.0330    -4.8390 os         1 NVS      -0.326900
     20 C8          -3.0020    -1.2370    -5.4090 c3         1 NVS       0.127700
     21 H1          -1.5160     0.7800     1.1220 h1         1 NVS       0.071200
     22 H2          -1.0400    -1.0370     1.4180 h1         1 NVS       0.071200
     23 H3           3.3370     0.7620     3.2740 ha         1 NVS       0.162000
     24 H4          -0.1880     1.5140     5.5780 ha         1 NVS       0.147000
     25 H5          -1.5830     0.8320     3.6660 ha         1 NVS       0.140000
     26 H6           2.6570     0.7970     6.1110 ho         1 NVS       0.425000
     27 H7          -0.7320     2.1490    -1.3570 ha         1 NVS       0.141000
     28 H8          -1.9250     2.1630    -3.5140 ha         1 NVS       0.144500
     29 H9          -1.9630    -2.1160    -3.5220 ha         1 NVS       0.144500
     30 H10         -0.7660    -2.1320    -1.3680 ha         1 NVS       0.141000
     31 H11         -3.5210    -1.0890    -6.3480 h1         1 NVS       0.043033
     32 H12         -3.6390    -1.7860    -4.7270 h1         1 NVS       0.043033
     33 H13         -2.0920    -1.7990    -5.5840 h1         1 NVS       0.043033
@<TRIPOS>BOND
     1    20    19 1
     2    19    16 1
     3    16    15 ar
     4    16    17 ar
     5    15    14 ar
     6    17    18 ar
     7    14    13 ar
     8    18    13 ar
     9    13     1 1
    10     6     1 1
    11     6     5 1
    12     1     2 1
    13     7     2 2
    14     2     3 1
    15     5    11 ar
    16     5     4 ar
    17    11    10 ar
    18     3     4 1
    19     4     8 ar
    20    10     9 ar
    21     8     9 ar
    22     9    12 1
    23     6    21 1
    24     6    22 1
    25     8    23 1
    26    10    24 1
    27    11    25 1
    28    12    26 1
    29    14    27 1
    30    15    28 1
    31    17    29 1
    32    18    30 1
    33    20    31 1
    34    20    32 1
    35    20    33 1
@<TRIPOS>SUBSTRUCTURE
     1 NVS         1 TEMP              0 ****  ****    0 ROOT
