@<TRIPOS>MOLECULE
NVU
   19    20     1     0     0
SMALL
bcc


@<TRIPOS>ATOM
      1 CA          0.3480   -0.4000    0.3430 c3        1 NVU     -0.242700
      2 C           0.4810    0.8130   -0.6150 c         1 NVU      0.920600
      3 O           1.3550    1.6850   -0.3370 o         1 NVU     -0.832300
      4 OXT        -0.2520    0.8360   -1.6370 o         1 NVU     -0.832300
      5 CB         -0.5610   -0.1520    1.4790 cc        1 NVU      0.450900
      6 CG         -0.5730    1.0670    2.3130 ca        1 NVU     -0.209900
      7 CD1         0.0970    2.2820    2.3360 ca        1 NVU     -0.032000
      8 CE1        -0.2430    3.1880    3.3440 ca        1 NVU     -0.184000
      9 CZ         -1.2270    2.8990    4.2980 ca        1 NVU     -0.111000
     10 CE2        -1.9260    1.6890    4.2900 ca        1 NVU     -0.157000
     11 CD2        -1.5810    0.7940    3.2880 ca        1 NVU      0.042100
     12 OH         -2.1080   -0.4830    3.0240 os        1 NVU     -0.046600
     13 NAL        -1.4820   -1.0020    1.9610 nd        1 NVU     -0.459200
     14 HA1C        1.3670   -0.6200    0.7600 hc        1 NVU      0.055700
     15 HA2C        0.0060   -1.2820   -0.2570 hc        1 NVU      0.055700
     16 HD1         0.8540    2.5070    1.5570 ha        1 NVU      0.214000
     17 HE1         0.2710    4.1590    3.3840 ha        1 NVU      0.123000
     18 HZ         -1.4630    3.6440    5.0710 ha        1 NVU      0.113000
     19 HE2        -2.7030    1.4610    5.0280 ha        1 NVU      0.133000
@<TRIPOS>BOND
     1    1    2 1
     2    1    5 1
     3    1   14 1
     4    1   15 1
     5    2    3 1
     6    2    4 1
     7    5    6 1
     8    5   13 2
     9    6    7 ar
    10    6   11 ar
    11    7    8 ar
    12    7   16 1
    13    8    9 ar
    14    8   17 1
    15    9   10 ar
    16    9   18 1
    17   10   11 ar
    18   10   19 1
    19   11   12 1
    20   12   13 1
@<TRIPOS>SUBSTRUCTURE
     1 NVU         1 TEMP              0 ****  ****    0 ROOT
