@<TRIPOS>MOLECULE
molecule
   41    44     1     0     0
SMALL
bcc


@<TRIPOS>ATOM
      1 CAK          0.0000     0.0000     0.0000 ca         1 NVV      -0.110000
      2 CAV          1.3960     0.0000     0.0000 ca         1 NVV       0.194400
      3 NAO          2.1070     0.0000     1.1550 nc         1 NVV      -0.644100
      4 CAI          3.4050    -0.0000     1.1550 cd         1 NVV       0.503800
      5 NAP          4.1530    -0.0000     0.0190 ns         1 NVV      -0.479400
      6 CAU          3.5590     0.0000    -1.1970 c          1 NVV       0.705100
      7 OAB          4.2160    -0.0000    -2.2210 o          1 NVV      -0.621500
      8 CAW          2.0880     0.0000    -1.2310 ca         1 NVV      -0.206600
      9 CAH          1.3800     0.0010    -2.4310 ca         1 NVV      -0.051000
     10 CAG          0.0020     0.0020    -2.4050 ca         1 NVV      -0.156000
     11 CAT         -0.6810     0.0000    -1.1960 ca         1 NVV      -0.049300
     12 CAY         -2.1890     0.0000    -1.1940 c3         1 NVV      -0.024400
     13 CAM         -2.7260     1.2170    -1.9790 c3         1 NVV       0.145800
     14 NAN         -3.9300     0.7060    -2.6830 n7         1 NVV      -0.781200
     15 CAL         -3.5420    -0.6580    -3.1280 c3         1 NVV       0.150800
     16 CAQ         -3.6130    -2.0550    -1.0480 c          1 NVV       0.588700
     17 CAX         -2.7260    -1.2340    -1.9480 c3         1 NVV      -0.167700
     18 OAA         -4.2070    -1.5250    -0.1350 o          1 NVV      -0.507100
     19 CAS         -3.7600    -3.5010    -1.2790 ca         1 NVV      -0.177600
     20 CAF         -4.5820    -4.2660    -0.4470 ca         1 NVV      -0.054000
     21 CAD         -4.7150    -5.6210    -0.6700 ca         1 NVV      -0.143000
     22 CAE         -4.0350    -6.2240    -1.7130 ca         1 NVV      -0.072000
     23 CAR         -3.2180    -5.4730    -2.5420 ca         1 NVV       0.038900
     24 CAJ         -3.0810    -4.1170    -2.3360 ca         1 NVV      -0.064000
     25 ILA         -2.1940    -6.4000    -4.1170 i          1 NVV      -0.162900
     26 HAD         -5.3520    -6.2140    -0.0260 ha         1 NVV       0.142000
     27 HAE         -4.1410    -7.2880    -1.8820 ha         1 NVV       0.144000
     28 HAF         -5.1150    -3.7950     0.3710 ha         1 NVV       0.158000
     29 HAG         -0.5530     0.0020    -3.3360 ha         1 NVV       0.135000
     30 HAH          1.9080     0.0020    -3.3770 ha         1 NVV       0.156000
     31 HAI          3.9200    -0.0010     2.1080 h5         1 NVV       0.055800
     32 HAP          5.1520    -0.0010     0.0830 hn         1 NVV       0.338500
     33 HAJ         -2.4410    -3.5310    -2.9850 ha         1 NVV       0.145000
     34 HAK         -0.5440    -0.0010     0.9370 ha         1 NVV       0.157000
     35 HAL1        -4.4240    -1.2610    -3.3060 h1         1 NVV       0.046700
     36 HAL2        -2.9280    -0.6020    -4.0190 h1         1 NVV       0.046700
     37 HAX         -1.9030    -1.8320    -2.3200 hc         1 NVV       0.074700
     38 HAN         -4.1170     1.2780    -3.4830 hn         1 NVV       0.350800
     39 HAM1        -2.9990     2.0140    -1.2970 h1         1 NVV       0.048200
     40 HAM2        -1.9890     1.5590    -2.6940 h1         1 NVV       0.048200
     41 HAY         -2.5680     0.0130    -0.1800 hc         1 NVV       0.096700
@<TRIPOS>BOND
     1    21    22 ar
     2    21    20 ar
     3    22    23 ar
     4    20    19 ar
     5    10     9 ar
     6    10    11 ar
     7     9     8 ar
     8     4     3 2
     9     4     5 1
    10    24    23 ar
    11    24    19 ar
    12     1    11 ar
    13     1     2 ar
    14    15    17 1
    15    15    14 1
    16    13    12 1
    17    13    14 1
    18    16    19 1
    19    16    17 1
    20    16    18 2
    21    23    25 1
    22    11    12 1
    23     6     8 1
    24     6     5 1
    25     6     7 2
    26     2     8 ar
    27     2     3 1
    28    17    12 1
    29    21    26 1
    30    22    27 1
    31    20    28 1
    32    10    29 1
    33     9    30 1
    34     4    31 1
    35     5    32 1
    36    24    33 1
    37     1    34 1
    38    15    35 1
    39    15    36 1
    40    17    37 1
    41    14    38 1
    42    13    39 1
    43    13    40 1
    44    12    41 1
@<TRIPOS>SUBSTRUCTURE
     1 NVV         1 TEMP              0 ****  ****    0 ROOT
