@<TRIPOS>MOLECULE
NVW
   61    64     1     0     0
SMALL
bcc


@<TRIPOS>ATOM
      1 N1           0.0000     0.0000     0.0000 nb         1 NVW      -0.709000
      2 C1           1.3920    -0.0080     2.2960 ca         1 NVW       0.624200
      3 N2           2.0200     0.0000     1.1270 nb         1 NVW      -0.703000
      4 C2           1.3210     0.0000     0.0000 cp         1 NVW       0.760500
      5 C3           2.0430    -0.0020    -1.2960 cp         1 NVW      -0.181500
      6 N3           2.1150    -0.0080     3.4790 nu         1 NVW      -0.281300
      7 C4           3.4370    -0.0020    -1.3200 ca         1 NVW      -0.053500
      8 C5           4.1030    -0.0030    -2.5290 ca         1 NVW      -0.121000
      9 C6           3.3900    -0.0040    -3.7150 ca         1 NVW      -0.079000
     10 C7           2.0070    -0.0030    -3.6960 ca         1 NVW      -0.121000
     11 C8           1.3310    -0.0080    -2.4940 ca         1 NVW      -0.053500
     12 C9          -0.7000     0.0020     1.1380 ca         1 NVW       0.546600
     13 C10         -0.0080    -0.0160     2.3230 ca         1 NVW      -0.458100
     14 S1          -0.8250    -0.0670     3.8840 sy         1 NVW       0.882300
     15 C11         -2.5560     0.3110     3.4720 c3         1 NVW       0.013400
     16 C12         -2.9160    -0.5210     2.2320 c3         1 NVW       0.000600
     17 C13         -2.1930     0.0470     1.0220 c3         1 NVW      -0.095700
     18 O1          -0.6910    -1.4160     4.3090 o          1 NVW      -0.589800
     19 O2          -0.2420     0.9980     4.6230 o          1 NVW      -0.589800
     20 C14          3.5060     0.1240     3.4490 ca         1 NVW      -0.008400
     21 C15          4.1060     0.9560     2.5120 ca         1 NVW      -0.108000
     22 C16          5.6660    -0.4390     4.3250 ca         1 NVW      -0.069500
     23 C17          4.2910    -0.5720     4.3580 ca         1 NVW      -0.108000
     24 C18          6.2600     0.3930     3.3950 ca         1 NVW      -0.079300
     25 C19          5.4810     1.0870     2.4870 ca         1 NVW      -0.069500
     26 C20          7.7600     0.5350     3.3620 c3         1 NVW      -0.037100
     27 C21          8.3420    -0.5000     2.4350 c          1 NVW       0.573100
     28 N4           9.6760    -0.5630     2.2460 ns         1 NVW      -0.200900
     29 O3           7.6120    -1.2770     1.8570 o          1 NVW      -0.635100
     30 C22         10.2410    -1.5700     1.3460 c3         1 NVW       0.013400
     31 C23          9.6790    -1.3680    -0.0620 c3         1 NVW      -0.015433
     32 C24         11.7650    -1.4250     1.3120 c3         1 NVW      -0.015433
     33 C25          9.8730    -2.9680     1.8470 c3         1 NVW      -0.015433
     34 H1           1.6410    -0.1070     4.3550 hn         1 NVW       0.317800
     35 H2           3.9960    -0.0010    -0.3930 ha         1 NVW       0.126000
     36 H3           5.1860    -0.0040    -2.5490 ha         1 NVW       0.104500
     37 H4           3.9170    -0.0030    -4.6620 ha         1 NVW       0.099000
     38 H5           1.4530    -0.0060    -4.6270 ha         1 NVW       0.104500
     39 H6           0.2470    -0.0070    -2.4810 ha         1 NVW       0.126000
     40 H7          -2.6590     1.3660     3.2510 h1         1 NVW       0.072200
     41 H8          -3.1990     0.0360     4.3000 h1         1 NVW       0.072200
     42 H9          -3.9840    -0.4540     2.0650 hc         1 NVW       0.034200
     43 H10         -2.5890    -1.5420     2.3880 hc         1 NVW       0.034200
     44 H11         -2.4880    -0.5210     0.1480 hc         1 NVW       0.041200
     45 H12         -2.4980     1.0780     0.8920 hc         1 NVW       0.041200
     46 H13          3.4970     1.5000     1.8000 ha         1 NVW       0.118500
     47 H14          6.2790    -0.9820     5.0340 ha         1 NVW       0.102500
     48 H15          3.8270    -1.2240     5.0880 ha         1 NVW       0.118500
     49 H16          5.9490     1.7370     1.7580 ha         1 NVW       0.102500
     50 H17          8.1580     0.3920     4.3590 hc         1 NVW       0.028700
     51 H18          8.0210     1.5250     3.0080 hc         1 NVW       0.028700
     52 H19         10.2800     0.0740     2.7280 hn         1 NVW       0.171500
     53 H20          9.5750    -0.3090    -0.2610 hc         1 NVW       0.015367
     54 H21          8.7100    -1.8470    -0.1360 hc         1 NVW       0.015367
     55 H22         10.3550    -1.8070    -0.7870 hc         1 NVW       0.015367
     56 H23         12.1630    -1.5680     2.3100 hc         1 NVW       0.015367
     57 H24         12.1840    -2.1700     0.6460 hc         1 NVW       0.015367
     58 H25         12.0260    -0.4360     0.9580 hc         1 NVW       0.015367
     59 H26          9.9080    -2.9840     2.9290 hc         1 NVW       0.015367
     60 H27         10.5780    -3.6900     1.4520 hc         1 NVW       0.015367
     61 H28          8.8740    -3.2200     1.5130 hc         1 NVW       0.015367
@<TRIPOS>BOND
     1     1     4 ar  
     2     1    12 ar  
     3     2     3 ar  
     4     2     6 1   
     5     2    13 ar  
     6     3     4 ar  
     7     4     5 1   
     8     5     7 ar  
     9     5    11 ar  
    10     6    20 1   
    11     6    34 1   
    12     7     8 ar  
    13     7    35 1   
    14     8     9 ar  
    15     8    36 1   
    16     9    10 ar  
    17     9    37 1   
    18    10    11 ar  
    19    10    38 1   
    20    11    39 1   
    21    12    13 ar  
    22    12    17 1   
    23    13    14 1   
    24    14    15 1   
    25    14    18 2   
    26    14    19 2   
    27    15    16 1   
    28    15    40 1   
    29    15    41 1   
    30    16    17 1   
    31    16    42 1   
    32    16    43 1   
    33    17    44 1   
    34    17    45 1   
    35    20    21 ar  
    36    20    23 ar  
    37    21    25 ar  
    38    21    46 1   
    39    22    23 ar  
    40    22    24 ar  
    41    22    47 1   
    42    23    48 1   
    43    24    25 ar  
    44    24    26 1   
    45    25    49 1   
    46    26    27 1   
    47    26    50 1   
    48    26    51 1   
    49    27    28 1   
    50    27    29 2   
    51    28    30 1   
    52    28    52 1   
    53    30    31 1   
    54    30    32 1   
    55    30    33 1   
    56    31    53 1   
    57    31    54 1   
    58    31    55 1   
    59    32    56 1   
    60    32    57 1   
    61    32    58 1   
    62    33    59 1   
    63    33    60 1   
    64    33    61 1   
@<TRIPOS>SUBSTRUCTURE
     1 NVW         1 TEMP              0 ****  ****    0 ROOT
