@<TRIPOS>MOLECULE
NVX
   41    44     1     0     0
SMALL
bcc


@<TRIPOS>ATOM
      1 CAK          0.0000     0.0000     0.0000 ca         1 NVX      -0.084000
      2 CAV          1.3970     0.0000     0.0000 ca         1 NVX       0.153400
      3 NAO          2.1090     0.0000     1.1550 nc         1 NVX      -0.537100
      4 CAI          3.4070     0.0000     1.1550 cd         1 NVX       0.330800
      5 NAP          4.1530     0.0020     0.0200 ns         1 NVX      -0.018400
      6 CAU          3.5590     0.0030    -1.1960 c          1 NVX       0.617100
      7 OAB          4.2150     0.0050    -2.2210 o          1 NVX      -0.662500
      8 CAW          2.0890     0.0020    -1.2300 ca         1 NVX      -0.216600
      9 CAH          1.3800     0.0030    -2.4300 ca         1 NVX      -0.014000
     10 CAG          0.0030     0.0020    -2.4040 ca         1 NVX      -0.135000
     11 CAT         -0.6810     0.0010    -1.1960 ca         1 NVX      -0.054300
     12 CAY         -2.1880     0.0010    -1.1930 c3         1 NVX       0.002600
     13 CAM         -2.7260     1.2360    -1.9470 c3         1 NVX       0.143800
     14 NAN         -3.9300     0.7430    -2.6630 n7         1 NVX      -0.569200
     15 CAL         -3.5420    -0.6090    -3.1420 c3         1 NVX       0.157800
     16 CAX         -2.7250    -1.2140    -1.9800 c3         1 NVX      -0.155700
     17 CAQ         -3.6120    -2.0560    -1.1000 c          1 NVX       0.634700
     18 OAA         -4.2460    -1.5390    -0.2050 o          1 NVX      -0.536100
     19 CAS         -3.7080    -3.5070    -1.3260 ca         1 NVX      -0.173600
     20 CAJ         -4.5290    -4.2930    -0.5120 ca         1 NVX      -0.035000
     21 CAR         -4.6140    -5.6530    -0.7310 ca         1 NVX      -0.052600
     22 Cl          -5.6330    -6.6310     0.2770 cl         1 NVX      -0.016400
     23 CAE         -3.8870    -6.2390    -1.7550 ca         1 NVX      -0.071000
     24 CAD         -3.0720    -5.4680    -2.5640 ca         1 NVX      -0.104000
     25 CAF         -2.9820    -4.1060    -2.3620 ca         1 NVX      -0.070000
     26 HAK         -0.5440    -0.0010     0.9370 ha         1 NVX       0.129000
     27 HAI          3.9220    -0.0000     2.1090 h5         1 NVX       0.003800
     28 HAP          5.1520     0.0020     0.0840 hn         1 NVX       0.182500
     29 HAH          1.9070     0.0040    -3.3760 ha         1 NVX       0.125000
     30 HAG         -0.5520     0.0030    -3.3350 ha         1 NVX       0.112000
     31 HAY         -2.5680    -0.0130    -0.1790 hc         1 NVX       0.069700
     32 HAM1        -1.9880     1.5960    -2.6530 h1         1 NVX       0.018700
     33 HAM2        -2.9990     2.0150    -1.2450 h1         1 NVX       0.018700
     34 HAX         -1.9020    -1.8020    -2.3670 hc         1 NVX       0.054700
     35 HAN         -4.1160     1.3340    -3.4490 hn         1 NVX       0.253800
     36 HAL1        -2.9290    -0.5310    -4.0320 h1         1 NVX       0.013700
     37 HAL2        -4.4240    -1.2070    -3.3340 h1         1 NVX       0.013700
     38 HAJ         -5.0380    -3.8480     0.3340 ha         1 NVX       0.135000
     39 HAF         -2.3430    -3.5030    -2.9960 ha         1 NVX       0.112000
     40 HAE         -3.9560    -7.3070    -1.9210 ha         1 NVX       0.114000
     41 HAD         -2.5090    -5.9340    -3.3640 ha         1 NVX       0.109000
@<TRIPOS>BOND
     1     1     2 ar  
     2     1    11 ar  
     3     1    26 1   
     4     2     3 1   
     5     2     8 ar  
     6     3     4 2   
     7     4     5 1   
     8     4    27 1   
     9     5     6 1   
    10     5    28 1   
    11     6     7 2   
    12     6     8 1   
    13     8     9 ar  
    14     9    10 ar  
    15     9    29 1   
    16    10    11 ar  
    17    10    30 1   
    18    11    12 1   
    19    12    13 1   
    20    12    16 1   
    21    12    31 1   
    22    13    14 1   
    23    13    32 1   
    24    13    33 1   
    25    14    15 1   
    26    14    35 1   
    27    15    16 1   
    28    15    36 1   
    29    15    37 1   
    30    16    17 1   
    31    16    34 1   
    32    17    18 2   
    33    17    19 1   
    34    19    20 ar  
    35    19    25 ar  
    36    20    21 ar  
    37    20    38 1   
    38    21    22 1   
    39    21    23 ar  
    40    23    24 ar  
    41    23    40 1   
    42    24    25 ar  
    43    24    41 1   
    44    25    39 1   
@<TRIPOS>SUBSTRUCTURE
     1 NVX         1 TEMP              0 ****  ****    0 ROOT
