@<TRIPOS>MOLECULE
molecule
   41    44     1     0     0
SMALL
bcc


@<TRIPOS>ATOM
      1 CAK          0.0000     0.0000     0.0000 ca         1 NVX      -0.110000
      2 CAV          1.3970     0.0000     0.0000 ca         1 NVX       0.195400
      3 NAO          2.1090     0.0000     1.1550 nc         1 NVX      -0.644100
      4 CAI          3.4070     0.0000     1.1550 cd         1 NVX       0.503800
      5 NAP          4.1530     0.0020     0.0200 ns         1 NVX      -0.478400
      6 CAU          3.5590     0.0030    -1.1960 c          1 NVX       0.705100
      7 OAB          4.2150     0.0050    -2.2210 o          1 NVX      -0.621500
      8 CAW          2.0890     0.0020    -1.2300 ca         1 NVX      -0.206600
      9 CAH          1.3800     0.0030    -2.4300 ca         1 NVX      -0.051000
     10 CAG          0.0030     0.0020    -2.4040 ca         1 NVX      -0.156000
     11 CAT         -0.6810     0.0010    -1.1960 ca         1 NVX      -0.049300
     12 CAY         -2.1880     0.0010    -1.1930 c3         1 NVX      -0.024400
     13 CAM         -2.7260     1.2360    -1.9470 c3         1 NVX       0.145800
     14 NAN         -3.9300     0.7430    -2.6630 n7         1 NVX      -0.779200
     15 CAL         -3.5420    -0.6090    -3.1420 c3         1 NVX       0.150800
     16 CAX         -2.7250    -1.2140    -1.9800 c3         1 NVX      -0.166700
     17 CAQ         -3.6120    -2.0560    -1.1000 c          1 NVX       0.586700
     18 OAA         -4.2460    -1.5390    -0.2050 o          1 NVX      -0.504100
     19 CAS         -3.7080    -3.5070    -1.3260 ca         1 NVX      -0.167600
     20 CAJ         -4.5290    -4.2930    -0.5120 ca         1 NVX      -0.063000
     21 CAR         -4.6140    -5.6530    -0.7310 ca         1 NVX       0.013400
     22 Cl          -5.6330    -6.6310     0.2770 cl         1 NVX      -0.099400
     23 CAE         -3.8870    -6.2390    -1.7550 ca         1 NVX      -0.095000
     24 CAD         -3.0720    -5.4680    -2.5640 ca         1 NVX      -0.133000
     25 CAF         -2.9820    -4.1060    -2.3620 ca         1 NVX      -0.094000
     26 HAK         -0.5440    -0.0010     0.9370 ha         1 NVX       0.157000
     27 HAI          3.9220    -0.0000     2.1090 h5         1 NVX       0.056800
     28 HAP          5.1520     0.0020     0.0840 hn         1 NVX       0.338500
     29 HAH          1.9070     0.0040    -3.3760 ha         1 NVX       0.155000
     30 HAG         -0.5520     0.0030    -3.3350 ha         1 NVX       0.134000
     31 HAY         -2.5680    -0.0130    -0.1790 hc         1 NVX       0.096700
     32 HAM1        -1.9880     1.5960    -2.6530 h1         1 NVX       0.048700
     33 HAM2        -2.9990     2.0150    -1.2450 h1         1 NVX       0.048700
     34 HAX         -1.9020    -1.8020    -2.3670 hc         1 NVX       0.073700
     35 HAN         -4.1160     1.3340    -3.4490 hn         1 NVX       0.349800
     36 HAL1        -2.9290    -0.5310    -4.0320 h1         1 NVX       0.045700
     37 HAL2        -4.4240    -1.2070    -3.3340 h1         1 NVX       0.045700
     38 HAJ         -5.0380    -3.8480     0.3340 ha         1 NVX       0.167000
     39 HAF         -2.3430    -3.5030    -2.9960 ha         1 NVX       0.138000
     40 HAE         -3.9560    -7.3070    -1.9210 ha         1 NVX       0.146000
     41 HAD         -2.5090    -5.9340    -3.3640 ha         1 NVX       0.140000
@<TRIPOS>BOND
     1     1     2 ar
     2     1    11 ar
     3     2     3 1
     4     2     8 ar
     5     3     4 2
     6     4     5 1
     7     5     6 1
     8     6     7 2
     9     6     8 1
    10     8     9 ar
    11     9    10 ar
    12    10    11 ar
    13    11    12 1
    14    12    13 1
    15    12    16 1
    16    13    14 1
    17    14    15 1
    18    15    16 1
    19    16    17 1
    20    17    18 2
    21    17    19 1
    22    19    20 ar
    23    19    25 ar
    24    20    21 ar
    25    21    22 1
    26    21    23 ar
    27    23    24 ar
    28    24    25 ar
    29     1    26 1
    30     4    27 1
    31     5    28 1
    32     9    29 1
    33    10    30 1
    34    12    31 1
    35    13    32 1
    36    13    33 1
    37    16    34 1
    38    14    35 1
    39    15    36 1
    40    15    37 1
    41    20    38 1
    42    25    39 1
    43    23    40 1
    44    24    41 1
@<TRIPOS>SUBSTRUCTURE
     1 NVX         1 TEMP              0 ****  ****    0 ROOT
