@<TRIPOS>MOLECULE
molecule
   36    37     1     0     0
SMALL
bcc


@<TRIPOS>ATOM
      1 N1           0.0000     0.0000     0.0000 n          1 NVZ      -0.498400
      2 S1          -0.0960    -2.4900     2.2090 ss         1 NVZ      -0.318200
      3 C2           0.9340    -1.2600     3.1080 c3         1 NVZ       0.030400
      4 N2           1.8830     0.0000     1.2250 ns         1 NVZ      -0.585900
      5 C3           1.3400     0.0000     0.0000 c          1 NVZ       0.813500
      6 O3           2.0030     0.0000    -1.0180 o          1 NVZ      -0.622500
      7 C4           0.8050    -0.0010     2.2280 c3         1 NVZ       0.089700
      8 C5          -0.4800    -0.0010     1.3910 c3         1 NVZ       0.081700
      9 C6          -1.3360    -1.2600     1.6320 c3         1 NVZ      -0.010300
     10 C7           2.3900    -1.7230     3.1850 c3         1 NVZ      -0.069400
     11 C8           2.4810    -2.9750     4.0590 c3         1 NVZ      -0.089400
     12 C9           3.9370    -3.4380     4.1360 c3         1 NVZ      -0.063400
     13 C10          4.0300    -4.6900     5.0100 c3         1 NVZ      -0.182400
     14 C11          5.4630    -5.1460     5.0860 c          1 NVZ       0.890600
     15 O11          6.3240    -4.5320     4.5010 o          1 NVZ      -0.855800
     16 O12          5.7850    -6.2340     5.8040 o          1 NVZ      -0.855800
     17 C17         -0.7820     0.0050    -1.0970 c          1 NVZ       0.679100
     18 C18         -2.2790    -0.0910    -0.9560 c3         1 NVZ      -0.172100
     19 O19         -0.2810     0.0870    -2.1980 o          1 NVZ      -0.530100
     20 H2           0.5300    -1.0760     4.0970 h1         1 NVZ       0.076700
     21 HN2          2.8640     0.0000     1.4270 hn         1 NVZ       0.376500
     22 H4           0.8580     0.8930     2.8370 h1         1 NVZ       0.065700
     23 H5          -1.0580     0.8930     1.5890 h1         1 NVZ       0.065700
     24 H6          -2.0780    -1.0770     2.4000 h1         1 NVZ       0.078200
     25 H6A         -1.8000    -1.5890     0.7100 h1         1 NVZ       0.078200
     26 H7           2.9960    -0.9360     3.6170 hc         1 NVZ       0.056700
     27 H7A          2.7490    -1.9510     2.1890 hc         1 NVZ       0.056700
     28 H8           1.8740    -3.7620     3.6280 hc         1 NVZ       0.038200
     29 H8A          2.1220    -2.7470     5.0550 hc         1 NVZ       0.038200
     30 H9           4.5440    -2.6510     4.5670 hc         1 NVZ       0.047200
     31 H9A          4.2970    -3.6660     3.1400 hc         1 NVZ       0.047200
     32 H10          3.6700    -4.4620     6.0070 hc         1 NVZ       0.028700
     33 H10A         3.4230    -5.4770     4.5790 hc         1 NVZ       0.028700
     34 H18         -2.7530     0.3490    -1.8260 hc         1 NVZ       0.062033
     35 H18A        -2.5930     0.4410    -0.0660 hc         1 NVZ       0.062033
     36 H18B        -2.5680    -1.1320    -0.8750 hc         1 NVZ       0.062033
@<TRIPOS>BOND
     1     1     5 1
     2     1     8 1
     3     1    17 1
     4     2     3 1
     5     2     9 1
     6     3     7 1
     7     3    10 1
     8     4     5 1
     9     4     7 1
    10     5     6 2
    11     7     8 1
    12     8     9 1
    13    10    11 1
    14    11    12 1
    15    12    13 1
    16    13    14 1
    17    14    15 1
    18    14    16 1
    19    17    18 1
    20    17    19 2
    21     3    20 1
    22     4    21 1
    23     7    22 1
    24     8    23 1
    25     9    24 1
    26     9    25 1
    27    10    26 1
    28    10    27 1
    29    11    28 1
    30    11    29 1
    31    12    30 1
    32    12    31 1
    33    13    32 1
    34    13    33 1
    35    18    34 1
    36    18    35 1
    37    18    36 1
@<TRIPOS>SUBSTRUCTURE
     1 NVZ         1 TEMP              0 ****  ****    0 ROOT
