@<TRIPOS>MOLECULE
NVZ
   36    37     1     0     0
SMALL
bcc


@<TRIPOS>ATOM
      1 N1           0.0000     0.0000     0.0000 n          1 NVZ      -0.136400
      2 S1          -0.0960    -2.4900     2.2090 ss         1 NVZ      -0.375200
      3 C2           0.9340    -1.2600     3.1080 c3         1 NVZ       0.074400
      4 N2           1.8830     0.0000     1.2250 ns         1 NVZ      -0.207900
      5 C3           1.3400     0.0000     0.0000 c          1 NVZ       0.619500
      6 O3           2.0030     0.0000    -1.0180 o          1 NVZ      -0.660500
      7 C4           0.8050    -0.0010     2.2280 c3         1 NVZ       0.005700
      8 C5          -0.4800    -0.0010     1.3910 c3         1 NVZ       0.005700
      9 C6          -1.3360    -1.2600     1.6320 c3         1 NVZ       0.048700
     10 C7           2.3900    -1.7230     3.1850 c3         1 NVZ      -0.022400
     11 C8           2.4810    -2.9750     4.0590 c3         1 NVZ      -0.042400
     12 C9           3.9370    -3.4380     4.1360 c3         1 NVZ      -0.015400
     13 C10          4.0300    -4.6900     5.0100 c3         1 NVZ      -0.133400
     14 C11          5.4630    -5.1460     5.0860 c          1 NVZ       0.979600
     15 O11          6.3240    -4.5320     4.5010 o          1 NVZ      -0.904300
     16 O12          5.7850    -6.2340     5.8040 o          1 NVZ      -0.904300
     17 C17         -0.7820     0.0050    -1.0970 c          1 NVZ       0.594100
     18 C18         -2.2790    -0.0910    -0.9560 c3         1 NVZ      -0.083100
     19 O19         -0.2810     0.0870    -2.1980 o          1 NVZ      -0.560100
     20 H2           0.5300    -1.0760     4.0970 h1         1 NVZ       0.058700
     21 HN2          2.8640     0.0000     1.4270 hn         1 NVZ       0.232500
     22 H4           0.8580     0.8930     2.8370 h1         1 NVZ       0.038700
     23 H5          -1.0580     0.8930     1.5890 h1         1 NVZ       0.038700
     24 H6          -2.0780    -1.0770     2.4000 h1         1 NVZ       0.059700
     25 H6A         -1.8000    -1.5890     0.7100 h1         1 NVZ       0.059700
     26 H7           2.9960    -0.9360     3.6170 hc         1 NVZ       0.031700
     27 H7A          2.7490    -1.9510     2.1890 hc         1 NVZ       0.031700
     28 H8           1.8740    -3.7620     3.6280 hc         1 NVZ       0.016700
     29 H8A          2.1220    -2.7470     5.0550 hc         1 NVZ       0.016700
     30 H9           4.5440    -2.6510     4.5670 hc         1 NVZ       0.022200
     31 H9A          4.2970    -3.6660     3.1400 hc         1 NVZ       0.022200
     32 H10          3.6700    -4.4620     6.0070 hc         1 NVZ       0.005200
     33 H10A         3.4230    -5.4770     4.5790 hc         1 NVZ       0.005200
     34 H18         -2.7530     0.3490    -1.8260 hc         1 NVZ       0.027033
     35 H18A        -2.5930     0.4410    -0.0660 hc         1 NVZ       0.027033
     36 H18B        -2.5680    -1.1320    -0.8750 hc         1 NVZ       0.027033
@<TRIPOS>BOND
     1     1     5 1   
     2     1     8 1   
     3     1    17 1   
     4     2     3 1   
     5     2     9 1   
     6     3     7 1   
     7     3    10 1   
     8     3    20 1   
     9     4     5 1   
    10     4     7 1   
    11     4    21 1   
    12     5     6 2   
    13     7     8 1   
    14     7    22 1   
    15     8     9 1   
    16     8    23 1   
    17     9    24 1   
    18     9    25 1   
    19    10    11 1   
    20    10    26 1   
    21    10    27 1   
    22    11    12 1   
    23    11    28 1   
    24    11    29 1   
    25    12    13 1   
    26    12    30 1   
    27    12    31 1   
    28    13    14 1   
    29    13    32 1   
    30    13    33 1   
    31    14    15 1   
    32    14    16 1   
    33    17    18 1   
    34    17    19 2   
    35    18    34 1   
    36    18    35 1   
    37    18    36 1   
@<TRIPOS>SUBSTRUCTURE
     1 NVZ         1 TEMP              0 ****  ****    0 ROOT
