@<TRIPOS>MOLECULE
NW1
   35    36     1     0     0
SMALL
bcc


@<TRIPOS>ATOM
      1 N1           0.0000     0.0000     0.0000 nb         1 NW1      -0.818000
      2 C6           1.3220     0.0000     0.0000 ca         1 NW1       0.747600
      3 O6           2.0170    -0.0060    -1.1570 os         1 NW1      -0.344100
      4 C1           1.0580    -0.0050    -2.2160 c3         1 NW1       0.179400
      5 C3           1.7840    -0.0110    -3.5620 c3         1 NW1      -0.061700
      6 C11          0.7560    -0.0090    -4.6960 c3         1 NW1      -0.023400
      7 C10          1.4810    -0.0150    -6.0420 c3         1 NW1      -0.021900
      8 C9           2.3630     1.2290    -6.1530 c3         1 NW1      -0.026400
      9 C8           3.3900     1.2270    -5.0200 c3         1 NW1      -0.021900
     10 C7           2.6650     1.2340    -3.6730 c3         1 NW1      -0.023400
     11 C5           2.0130     0.0000     1.2980 ca         1 NW1      -0.435200
     12 N7           3.3340    -0.0050     1.3810 ne         1 NW1       0.146900
     13 O8           4.0080     0.1090     0.3740 o          1 NW1      -0.308300
     14 C4           1.1640     0.0050     2.5020 ca         1 NW1       0.703200
     15 N9           1.7170     0.0050     3.7580 nv         1 NW1      -0.644500
     16 N3          -0.1510     0.0090     2.3350 nb         1 NW1      -0.766000
     17 C2          -0.6970     0.0080     1.1280 ca         1 NW1       0.788900
     18 N2          -2.0680     0.0130     1.0400 nv         1 NW1      -0.452500
     19 H12          0.4340    -0.8870    -2.1380 h1         1 NW1       0.021200
     20 H11          0.4410     0.8820    -2.1420 h1         1 NW1       0.021200
     21 H3           2.4020    -0.8970    -3.6400 hc         1 NW1       0.040700
     22 H112         0.1410     0.8800    -4.6220 hc         1 NW1       0.019450
     23 H111         0.1340    -0.8920    -4.6180 hc         1 NW1       0.019450
     24 H102         0.7520    -0.0120    -6.8440 hc         1 NW1       0.014450
     25 H101         2.1000    -0.9020    -6.1140 hc         1 NW1       0.014450
     26 H92          1.7450     2.1160    -6.0770 hc         1 NW1       0.012700
     27 H91          2.8780     1.2220    -7.1060 hc         1 NW1       0.012700
     28 H82          4.0050     0.3390    -5.0930 hc         1 NW1       0.014450
     29 H81          4.0130     2.1110    -5.0970 hc         1 NW1       0.014450
     30 H72          3.3940     1.2300    -2.8720 hc         1 NW1       0.019450
     31 H71          2.0460     2.1200    -3.6020 hc         1 NW1       0.019450
     32 H9N3         1.9060    -0.8620     4.2210 hn         1 NW1       0.290800
     33 H9N2         1.9000     0.8710     4.2240 hn         1 NW1       0.290800
     34 H22         -2.5120     0.0120     0.1430 hn         1 NW1       0.278300
     35 H21         -2.6220     0.0190     1.8730 hn         1 NW1       0.278300
@<TRIPOS>BOND
     1     1     2 ar  
     2     1    17 ar  
     3     2     3 1   
     4     2    11 ar  
     5     3     4 1   
     6     4     5 1   
     7     4    19 1   
     8     4    20 1   
     9     5     6 1   
    10     5    10 1   
    11     5    21 1   
    12     6     7 1   
    13     6    22 1   
    14     6    23 1   
    15     7     8 1   
    16     7    24 1   
    17     7    25 1   
    18     8     9 1   
    19     8    26 1   
    20     8    27 1   
    21     9    10 1   
    22     9    28 1   
    23     9    29 1   
    24    10    30 1   
    25    10    31 1   
    26    11    12 1   
    27    11    14 ar  
    28    12    13 2   
    29    14    15 1   
    30    14    16 ar  
    31    15    32 1   
    32    15    33 1   
    33    16    17 ar  
    34    17    18 1   
    35    18    34 1   
    36    18    35 1   
@<TRIPOS>SUBSTRUCTURE
     1 NW1         1 TEMP              0 ****  ****    0 ROOT
