@<TRIPOS>MOLECULE
NWA
   31    30     1     0     0
SMALL
bcc


@<TRIPOS>ATOM
      1 N1           0.0000     0.0000     0.0000 n4         1 NWA       0.051200
      2 C2           1.4690     0.0000     0.0000 c3         1 NWA      -0.014200
      3 C3           1.9790     0.0000     1.4420 c3         1 NWA      -0.057400
      4 C5           4.0200    -0.0000     2.8850 c3         1 NWA       0.388600
      5 O7           3.6400    -1.2210     3.5250 oh         1 NWA      -0.613800
      6 O8           5.4430     0.1170     2.8880 oh         1 NWA      -0.613800
      7 C6           3.4100     1.1820     3.6420 c3         1 NWA      -0.045100
      8 C8          -0.4890     1.2000     0.6920 c3         1 NWA       0.014767
      9 C9          -0.4890     0.0010    -1.3850 c3         1 NWA       0.014767
     10 C10         -0.4890    -1.1990     0.6930 c3         1 NWA       0.014767
     11 C4           3.5090    -0.0000     1.4430 c3         1 NWA      -0.027400
     12 H2C1         1.8300     0.8840    -0.5110 hx         1 NWA       0.078700
     13 H2C2         1.8300    -0.8840    -0.5110 hx         1 NWA       0.078700
     14 H3C1         1.6180    -0.8840     1.9530 hc         1 NWA       0.046200
     15 H3C2         1.6180     0.8850     1.9530 hc         1 NWA       0.046200
     16 H7           4.4140    -1.6960     3.7800 ho         1 NWA       0.417500
     17 H8           5.7710    -0.0560     3.7540 ho         1 NWA       0.417500
     18 H6C1         2.4310     0.9050     4.0160 hc         1 NWA       0.021367
     19 H6C2         4.0520     1.4490     4.4720 hc         1 NWA       0.021367
     20 H6C3         3.3140     2.0280     2.9720 hc         1 NWA       0.021367
     21 H8C1         0.1330     2.0470     0.4290 hx         1 NWA       0.073478
     22 H8C2        -1.5120     1.3970     0.3950 hx         1 NWA       0.073478
     23 H8C3        -0.4480     1.0410     1.7630 hx         1 NWA       0.073478
     24 H9C1        -1.5720    -0.0020    -1.3850 hx         1 NWA       0.073478
     25 H9C2        -0.1250    -0.8820    -1.8970 hx         1 NWA       0.073478
     26 H9C3        -0.1300     0.8870    -1.8940 hx         1 NWA       0.073478
     27 H101        -0.4720    -1.0300     1.7630 hx         1 NWA       0.073478
     28 H102        -1.5040    -1.4100     0.3780 hx         1 NWA       0.073478
     29 H103         0.1460    -2.0420     0.4500 hx         1 NWA       0.073478
     30 H4C1         3.8710     0.8840     0.9320 hc         1 NWA       0.039200
     31 H4C2         3.8700    -0.8850     0.9320 hc         1 NWA       0.039200
@<TRIPOS>BOND
     1     1     2 1   
     2     1     8 1   
     3     1     9 1   
     4     1    10 1   
     5     2     3 1   
     6     2    12 1   
     7     2    13 1   
     8     3    11 1   
     9     3    14 1   
    10     3    15 1   
    11     4     5 1   
    12     4     6 1   
    13     4     7 1   
    14     4    11 1   
    15     5    16 1   
    16     6    17 1   
    17     7    18 1   
    18     7    19 1   
    19     7    20 1   
    20     8    21 1   
    21     8    22 1   
    22     8    23 1   
    23     9    24 1   
    24     9    25 1   
    25     9    26 1   
    26    10    27 1   
    27    10    28 1   
    28    10    29 1   
    29    11    30 1   
    30    11    31 1   
@<TRIPOS>SUBSTRUCTURE
     1 NWA         1 TEMP              0 ****  ****    0 ROOT
