@<TRIPOS>MOLECULE
molecule
   28    27     1     0     0
SMALL
bcc


@<TRIPOS>ATOM
      1 N1           0.0000     0.0000     0.0000 n4         1 NWB      -0.575800
      2 C2           1.4690     0.0000     0.0000 c3         1 NWB       0.100800
      3 C3           1.9780     0.0000     1.4430 c3         1 NWB      -0.101400
      4 C5           4.0100    -0.0000     2.8650 c          1 NWB       0.567100
      5 O7           3.2260     0.0000     3.7820 o          1 NWB      -0.517100
      6 C6           5.4920    -0.0000     3.1400 c3         1 NWB      -0.189100
      7 C10         -0.4900     1.1990     0.6920 c3         1 NWB       0.092767
      8 C8          -0.4890     0.0000    -1.3850 c3         1 NWB       0.092767
      9 C14          3.5090    -0.0000     1.4430 c3         1 NWB      -0.184400
     10 C9          -0.4900    -1.1990     0.6920 c3         1 NWB       0.092767
     11 H2C1         1.8300    -0.8850    -0.5110 hx         1 NWB       0.099700
     12 HA2          1.8300     0.8850    -0.5110 hx         1 NWB       0.099700
     13 HA1          1.6170     0.8850     1.9530 hc         1 NWB       0.074700
     14 HB2          1.6170    -0.8850     1.9530 hc         1 NWB       0.074700
     15 H6C1         5.9410    -0.8840     2.7040 hc         1 NWB       0.074367
     16 H6C2         5.6600    -0.0010     4.2100 hc         1 NWB       0.074367
     17 H63          5.9400     0.8850     2.7050 hc         1 NWB       0.074367
     18 H101        -0.4360     1.0450     1.7630 hx         1 NWB       0.099811
     19 H102        -1.5170     1.3870     0.4060 hx         1 NWB       0.099811
     20 H103         0.1230     2.0500     0.4190 hx         1 NWB       0.099811
     21 H8C1        -0.1280    -0.8850    -1.8950 hx         1 NWB       0.099811
     22 H8C2        -1.5730     0.0000    -1.3850 hx         1 NWB       0.099811
     23 H8C3        -0.1280     0.8840    -1.8950 hx         1 NWB       0.099811
     24 H141         3.8700    -0.8850     0.9330 hc         1 NWB       0.076700
     25 H142         3.8700     0.8850     0.9330 hc         1 NWB       0.076700
     26 H9C1        -1.5170    -1.3870     0.4060 hx         1 NWB       0.099811
     27 H9C2        -0.4360    -1.0450     1.7630 hx         1 NWB       0.099811
     28 H9C3         0.1230    -2.0500     0.4190 hx         1 NWB       0.099811
@<TRIPOS>BOND
     1     1     2 1
     2     1     7 1
     3     1     8 1
     4     1    10 1
     5     2     3 1
     6     2    11 1
     7     2    12 1
     8     3     9 1
     9     3    13 1
    10     3    14 1
    11     4     5 2
    12     4     6 1
    13     4     9 1
    14     6    15 1
    15     6    16 1
    16     6    17 1
    17     7    18 1
    18     7    19 1
    19     7    20 1
    20     8    21 1
    21     8    22 1
    22     8    23 1
    23     9    24 1
    24     9    25 1
    25    10    26 1
    26    10    27 1
    27    10    28 1
@<TRIPOS>SUBSTRUCTURE
     1 NWB         1 TEMP              0 ****  ****    0 ROOT
