@<TRIPOS>MOLECULE
molecule
   27    26     1     0     0
SMALL
bcc


@<TRIPOS>ATOM
      1 C7           0.0000     0.0000     0.0000 c3         1 NWH      -0.092100
      2 C6           1.5290     0.0000     0.0000 c3         1 NWH      -0.083400
      3 C5           2.0400     0.0000     1.4420 c3         1 NWH      -0.082400
      4 C4           3.5700     0.0000     1.4420 c3         1 NWH      -0.082400
      5 C3           4.0800     0.0010     2.8850 c3         1 NWH      -0.094400
      6 C2           5.6100     0.0000     2.8850 c3         1 NWH       0.107700
      7 C1           6.1210    -0.1250     4.3210 c3         1 NWH      -0.109100
      8 N            6.0990     1.2520     2.2990 ns         1 NWH      -0.591900
      9 C            7.3210     1.2980     1.7330 c          1 NWH       0.655900
     10 O            8.0150     0.3040     1.7070 o          1 NWH      -0.615100
     11 H1          -0.3610     0.0000    -1.0210 hc         1 NWH       0.033367
     12 H2          -0.3610     0.8840     0.5110 hc         1 NWH       0.033367
     13 H3          -0.3610    -0.8850     0.5110 hc         1 NWH       0.033367
     14 H4           1.8900    -0.8840    -0.5110 hc         1 NWH       0.040700
     15 H5           1.8900     0.8840    -0.5110 hc         1 NWH       0.040700
     16 H6           1.6790    -0.8840     1.9530 hc         1 NWH       0.040700
     17 H7           1.6790     0.8840     1.9530 hc         1 NWH       0.040700
     18 H8           3.9310     0.8840     0.9310 hc         1 NWH       0.045200
     19 H9           3.9320    -0.8850     0.9320 hc         1 NWH       0.045200
     20 H10          3.7190     0.8860     3.3940 hc         1 NWH       0.047700
     21 H11          3.7180    -0.8830     3.3960 hc         1 NWH       0.047700
     22 H12          5.9710    -0.8370     2.2990 h1         1 NWH       0.082700
     23 H13          5.7450    -1.0410     4.7600 hc         1 NWH       0.041700
     24 H14          5.7750     0.7220     4.9020 hc         1 NWH       0.041700
     25 H15          7.2040    -0.1430     4.3190 hc         1 NWH       0.041700
     26 H16          5.5440     2.0830     2.3620 hn         1 NWH       0.311500
     27 H17          7.6730     2.2170     1.2800 h5         1 NWH       0.021200
@<TRIPOS>BOND
     1    10     9 2
     2     9     8 1
     3     8     6 1
     4     6     7 1
     5     6     5 1
     6     5     4 1
     7     4     3 1
     8     3     2 1
     9     2     1 1
    10     1    11 1
    11     1    12 1
    12     1    13 1
    13     2    14 1
    14     2    15 1
    15     3    16 1
    16     3    17 1
    17     4    18 1
    18     4    19 1
    19     5    20 1
    20     5    21 1
    21     6    22 1
    22     7    23 1
    23     7    24 1
    24     7    25 1
    25     8    26 1
    26     9    27 1
@<TRIPOS>SUBSTRUCTURE
     1 NWH         1 TEMP              0 ****  ****    0 ROOT
