@<TRIPOS>MOLECULE
NWJ
   41    45     1     0     0
SMALL
bcc


@<TRIPOS>ATOM
      1 CAV          0.0000     0.0000     0.0000 c2         1 NWJ       0.258000
      2 OAE          1.2120     0.0000     0.0000 o          1 NWJ      -0.238000
      3 CAX         -0.7360     0.0000     1.2750 ca         1 NWJ      -0.259000
      4 CAK         -2.1310    -0.0010     1.2780 ca         1 NWJ      -0.052000
      5 CAI         -0.0380    -0.0030     2.4880 ca         1 NWJ      -0.037000
      6 CAH         -0.7260    -0.0030     3.6850 ca         1 NWJ      -0.107000
      7 CAJ         -2.1070     0.0020     3.6940 ca         1 NWJ      -0.051000
      8 CAY         -2.8190    -0.0000     2.4900 ca         1 NWJ      -0.041000
      9 CBA         -4.2950    -0.0000     2.5040 c2         1 NWJ      -0.152000
     10 NAS         -5.0970    -0.7910     1.7230 na         1 NWJ       0.377000
     11 CAZ         -5.0920     0.7940     3.3120 c2         1 NWJ      -0.002000
     12 CAG         -4.6520     1.7550     4.2780 c1         1 NWJ      -0.044000
     13 NAA         -4.3000     2.5040     5.0570 n1         1 NWJ      -0.080000
     14 C5          -6.4830     0.4500     2.9800 c2         1 NWJ      -0.242000
     15 C4          -6.4190    -0.5410     1.9860 c2         1 NWJ      -0.082000
     16 N3          -7.5590    -1.0330     1.5050 n2         1 NWJ      -0.193000
     17 C2          -8.7260    -0.5970     1.9520 c2         1 NWJ       0.030000
     18 NAB         -9.8860    -1.1390     1.4240 nv         1 NWJ       0.074000
     19 N1          -8.8260     0.3380     2.8880 n2         1 NWJ      -0.206000
     20 C6          -7.7390     0.8810     3.4280 c2         1 NWJ       0.093000
     21 NBF         -7.8460     1.8520     4.4070 nh         1 NWJ       0.044000
     22 CAN         -9.2600     2.1400     4.7130 c3         1 NWJ      -0.101000
     23 CAL         -9.4580     1.9020     6.2250 c3         1 NWJ      -0.330000
     24 CAM         -8.0220     2.0420     6.7920 c3         1 NWJ      -0.213000
     25 CAO         -7.1730     1.4250     5.6530 DU         1 NWJ       0.009000
     26 HAV         -0.5410    -0.9340     0.0920 h4         1 NWJ       0.120000
     27 HAK         -2.6750    -0.0240     0.3410 ha         1 NWJ       0.107000
     28 HAI          1.0450    -0.0280     2.4890 ha         1 NWJ       0.121000
     29 HAH         -0.1830    -0.0050     4.6220 ha         1 NWJ       0.113000
     30 HAJ         -2.6420     0.0020     4.6360 ha         1 NWJ       0.116000
     31 HAS         -4.7840    -1.4740     1.0620 hn         1 NWJ       0.074000
     32 HAB1        -9.9170    -2.1070     1.1730 hn         1 NWJ       0.070500
     33 HAB2       -10.7000    -0.5680     1.3160 hn         1 NWJ       0.070500
     34 HAN1        -9.8740     1.2780     4.4840 h1         1 NWJ       0.082500
     35 HAN2        -9.5940     3.0050     4.1520 h1         1 NWJ       0.082500
     36 HAO1        -6.9120     0.3750     5.5940 ha         1 NWJ       0.069000
     37 HAO2        -6.2890     2.0280     5.8250 ha         1 NWJ       0.069000
     38 HAL1       -10.5000     1.6880     6.4350 hc         1 NWJ       0.126000
     39 HAL2        -9.1280     2.7680     6.7860 hc         1 NWJ       0.126000
     40 HAM1        -7.5350     1.0740     6.8200 DU         1 NWJ       0.049000
     41 HAM2        -8.0520     2.4820     7.7820 hc         1 NWJ       0.148000
@<TRIPOS>BOND
     1     1     2 1   
     2     1     3 1   
     3     1    26 1   
     4     3     4 1   
     5     3     5 1   
     6     4     8 1   
     7     4    27 1   
     8     5     6 1   
     9     5    28 1   
    10     6     7 1   
    11     6    29 1   
    12     7     8 1   
    13     7    30 1   
    14     8     9 1   
    15     9    10 1   
    16     9    11 1   
    17    10    15 1   
    18    10    31 1   
    19    11    12 1   
    20    11    14 1   
    21    12    13 1   
    22    14    15 1   
    23    14    20 1   
    24    15    16 1   
    25    16    17 1   
    26    17    18 1   
    27    17    19 1   
    28    18    32 1   
    29    18    33 1   
    30    19    20 1   
    31    20    21 1   
    32    21    22 1   
    33    21    25 1   
    34    22    23 1   
    35    22    34 1   
    36    22    35 1   
    37    23    24 1   
    38    23    38 1   
    39    23    39 1   
    40    24    25 1   
    41    24    40 1   
    42    24    41 1   
    43    25    36 1   
    44    25    37 1   
    45    25    40 1   
@<TRIPOS>SUBSTRUCTURE
     1 NWJ         1 TEMP              0 ****  ****    0 ROOT
