@<TRIPOS>MOLECULE
molecule
   41    44     1     0     0
SMALL
bcc


@<TRIPOS>ATOM
      1 CAV          0.0000     0.0000     0.0000 c          1 NWJ       0.541500
      2 OAE          1.2120     0.0000     0.0000 o          1 NWJ      -0.457100
      3 CAX         -0.7360     0.0000     1.2750 ca         1 NWJ      -0.242600
      4 CAK         -2.1310    -0.0010     1.2780 ca         1 NWJ      -0.087000
      5 CAI         -0.0380    -0.0030     2.4880 ca         1 NWJ      -0.074000
      6 CAH         -0.7260    -0.0030     3.6850 ca         1 NWJ      -0.133000
      7 CAJ         -2.1070     0.0020     3.6940 ca         1 NWJ      -0.077000
      8 CAY         -2.8190    -0.0000     2.4900 ca         1 NWJ      -0.059800
      9 CBA         -4.2950    -0.0000     2.5040 cc         1 NWJ       0.035700
     10 NAS         -5.0970    -0.7910     1.7230 na         1 NWJ      -0.262100
     11 CAZ         -5.0920     0.7940     3.3120 cd         1 NWJ      -0.011900
     12 CAG         -4.6520     1.7550     4.2780 ch         1 NWJ       0.246500
     13 NAA         -4.3000     2.5040     5.0570 n1         1 NWJ      -0.382800
     14 C5          -6.4830     0.4500     2.9800 ca         1 NWJ      -0.377400
     15 C4          -6.4190    -0.5410     1.9860 ca         1 NWJ       0.543800
     16 N3          -7.5590    -1.0330     1.5050 nb         1 NWJ      -0.837000
     17 C2          -8.7260    -0.5970     1.9520 ca         1 NWJ       0.986900
     18 NAB         -9.8860    -1.1390     1.4240 nv         1 NWJ      -1.006500
     19 N1          -8.8260     0.3380     2.8880 nb         1 NWJ      -0.836000
     20 C6          -7.7390     0.8810     3.4280 ca         1 NWJ       0.720200
     21 NBF         -7.8460     1.8520     4.4070 nh         1 NWJ      -0.677300
     22 CAN         -9.2600     2.1400     4.7130 c3         1 NWJ       0.206300
     23 CAL         -9.4580     1.9020     6.2250 c3         1 NWJ      -0.241900
     24 CAM         -8.0220     2.0420     6.7920 c3         1 NWJ      -0.241900
     25 CAO         -7.1730     1.4250     5.6530 c3         1 NWJ       0.206300
     26 HAV         -0.5410    -0.9340     0.0920 h4         1 NWJ       0.050200
     27 HAK         -2.6750    -0.0240     0.3410 ha         1 NWJ       0.140000
     28 HAI          1.0450    -0.0280     2.4890 ha         1 NWJ       0.153000
     29 HAH         -0.1830    -0.0050     4.6220 ha         1 NWJ       0.144000
     30 HAJ         -2.6420     0.0020     4.6360 ha         1 NWJ       0.146000
     31 HAS         -4.7840    -1.4740     1.0620 hn         1 NWJ       0.313700
     32 HAB1        -9.9170    -2.1070     1.1730 hn         1 NWJ       0.449800
     33 HAB2       -10.7000    -0.5680     1.3160 hn         1 NWJ       0.449800
     34 HAN1        -9.8740     1.2780     4.4840 h1         1 NWJ       0.067200
     35 HAN2        -9.5940     3.0050     4.1520 h1         1 NWJ       0.067200
     36 HAO1        -6.9120     0.3750     5.5940 h1         1 NWJ       0.067200
     37 HAO2        -6.2890     2.0280     5.8250 h1         1 NWJ       0.067200
     38 HAL1       -10.5000     1.6880     6.4350 hc         1 NWJ       0.100450
     39 HAL2        -9.1280     2.7680     6.7860 hc         1 NWJ       0.100450
     40 HAM1        -7.5350     1.0740     6.8200 hc         1 NWJ       0.100450
     41 HAM2        -8.0520     2.4820     7.7820 hc         1 NWJ       0.100450
@<TRIPOS>BOND
     1     1     2 2
     2     1     3 1
     3     1    26 1
     4     3     4 ar
     5     3     5 ar
     6     4     8 ar
     7     5     6 ar
     8     6     7 ar
     9     7     8 ar
    10     8     9 1
    11     9    10 1
    12     9    11 2
    13    10    15 1
    14    11    12 1
    15    11    14 1
    16    12    13 3
    17    14    15 ar
    18    14    20 ar
    19    15    16 ar
    20    16    17 ar
    21    17    18 1
    22    17    19 ar
    23    19    20 ar
    24    20    21 1
    25    21    22 1
    26    21    25 1
    27    22    23 1
    28    23    24 1
    29    24    25 1
    30     4    27 1
    31     5    28 1
    32     6    29 1
    33     7    30 1
    34    10    31 1
    35    18    32 1
    36    18    33 1
    37    22    34 1
    38    22    35 1
    39    25    36 1
    40    25    37 1
    41    23    38 1
    42    23    39 1
    43    24    40 1
    44    24    41 1
@<TRIPOS>SUBSTRUCTURE
     1 NWJ         1 TEMP              0 ****  ****    0 ROOT
