@<TRIPOS>MOLECULE
molecule
   36    37     1     0     0
SMALL
bcc


@<TRIPOS>ATOM
      1 CAA          0.0000     0.0000     0.0000 ca         1 NWL      -0.110500
      2 CAB          1.3830     0.0000     0.0000 ca         1 NWL      -0.114500
      3 CAC          2.0730     0.0000     1.1970 ca         1 NWL      -0.151300
      4 CAD          3.5800    -0.0010     1.1980 c3         1 NWL       0.157300
      5 CAF          4.2920     2.0100     2.3660 c          1 NWL       0.822500
      6 NAG          4.0690     1.3810     1.1980 n          1 NWL      -0.371000
      7 CAH          4.2980     2.0260     0.0040 cc         1 NWL      -0.098400
      8 NAI          4.0690     1.3810    -1.1900 nz         1 NWL      -0.645400
      9 NAJ          4.7360     3.2800     2.3950 ns         1 NWL      -0.543500
     10 CAK          4.9740     3.9510     1.2510 c          1 NWL       0.704700
     11 CAL          4.7540     3.3160     0.0160 cd         1 NWL       0.121800
     12 NAM          4.9970     4.0020    -1.1970 nu         1 NWL      -0.777000
     13 CAN          5.4870     5.3820    -1.1720 c3         1 NWL       0.224800
     14 CAP         -0.0010     0.0000     2.3940 ca         1 NWL      -0.110500
     15 CAQ          1.3820     0.0000     2.3940 ca         1 NWL      -0.114500
     16 OAQ          5.3750     5.1020     1.2860 o          1 NWL      -0.561500
     17 CAR          5.6650     5.8860    -2.6060 c3         1 NWL      -0.117100
     18 CAS         -0.6910    -0.0010     1.1970 ca         1 NWL      -0.094000
     19 HAA         -0.5420    -0.0000    -0.9380 ha         1 NWL       0.149500
     20 HAB          1.9240     0.0010    -0.9380 ha         1 NWL       0.119000
     21 HAD          3.9410    -0.5120     2.0830 h1         1 NWL       0.076700
     22 HADA         3.9420    -0.5120     0.3140 h1         1 NWL       0.076700
     23 HNAI         3.1790     1.6590    -1.5540 hn         1 NWL       0.459800
     24 HNAA         4.0730     0.3910    -1.0400 hn         1 NWL       0.459800
     25 HNAJ         4.8910     3.7310     3.2750 hn         1 NWL       0.394500
     26 HNAM         4.8100     3.5530    -2.0720 hn         1 NWL       0.426800
     27 HAN          4.7710     6.0100    -0.6550 h1         1 NWL       0.082700
     28 HANA         6.4390     5.4190    -0.6560 h1         1 NWL       0.082700
     29 HAP         -0.5430    -0.0000     3.3320 ha         1 NWL       0.149500
     30 HAQ          1.9230     0.0000     3.3320 ha         1 NWL       0.119000
     31 HAR          6.3700     5.2500    -3.1270 hc         1 NWL       0.056367
     32 HARA         4.7110     5.8640    -3.1170 hc         1 NWL       0.056367
     33 HARB         6.0410     6.9020    -2.5870 hc         1 NWL       0.056367
     34 HAS         -1.7740    -0.0010     1.1960 ha         1 NWL       0.153000
     35 HAI3         4.7910     1.6160    -1.8410 hn         1 NWL       0.459800
     36 OAE          4.0840     1.4250     3.4120 o          1 NWL      -0.602500
@<TRIPOS>BOND
     1     1     2 ar
     2     1    18 ar
     3     2     3 ar
     4     3     4 1
     5     3    15 ar
     6     4     6 1
     7    36     5 2
     8     5     6 1
     9     5     9 1
    10     6     7 1
    11     7     8 1
    12     7    11 2
    13     9    10 1
    14    10    11 1
    15    10    16 2
    16    11    12 1
    17    12    13 1
    18    13    17 1
    19    14    15 ar
    20    14    18 ar
    21     1    19 1
    22     2    20 1
    23     4    21 1
    24     4    22 1
    25     8    23 1
    26     8    24 1
    27     9    25 1
    28    12    26 1
    29    13    27 1
    30    13    28 1
    31    14    29 1
    32    15    30 1
    33    17    31 1
    34    17    32 1
    35    17    33 1
    36    18    34 1
    37    35     8 1
@<TRIPOS>SUBSTRUCTURE
     1 NWL         1 TEMP              0 ****  ****    0 ROOT
