@<TRIPOS>MOLECULE
NWL
   36    37     1     0     0
SMALL
bcc


@<TRIPOS>ATOM
      1 CAA          0.0000     0.0000     0.0000 ca         1 NWL      -0.078500
      2 CAB          1.3830     0.0000     0.0000 ca         1 NWL      -0.088500
      3 CAC          2.0730     0.0000     1.1970 ca         1 NWL      -0.166300
      4 CAD          3.5800    -0.0010     1.1980 c3         1 NWL       0.092300
      5 CAF          4.2920     2.0100     2.3660 c          1 NWL       0.595500
      6 NAG          4.0690     1.3810     1.1980 n          1 NWL       0.052000
      7 CAH          4.2980     2.0260     0.0040 cc         1 NWL      -0.503400
      8 NAI          4.0690     1.3810    -1.1900 nz         1 NWL       0.298600
      9 NAJ          4.7360     3.2800     2.3950 ns         1 NWL      -0.093500
     10 CAK          4.9740     3.9510     1.2510 c          1 NWL       0.602700
     11 CAL          4.7540     3.3160     0.0160 cd         1 NWL       0.002800
     12 NAM          4.9970     4.0020    -1.1970 nu         1 NWL      -0.307000
     13 CAN          5.4870     5.3820    -1.1720 c3         1 NWL       0.135800
     14 CAP         -0.0010     0.0000     2.3940 ca         1 NWL      -0.078500
     15 CAQ          1.3820     0.0000     2.3940 ca         1 NWL      -0.088500
     16 OAQ          5.3750     5.1020     1.2860 o          1 NWL      -0.611500
     17 CAR          5.6650     5.8860    -2.6060 c3         1 NWL      -0.005100
     18 CAS         -0.6910    -0.0010     1.1970 ca         1 NWL      -0.064000
     19 HAA         -0.5420    -0.0000    -0.9380 ha         1 NWL       0.118000
     20 HAB          1.9240     0.0010    -0.9380 ha         1 NWL       0.096500
     21 HAD          3.9410    -0.5120     2.0830 h1         1 NWL       0.047700
     22 HADA         3.9420    -0.5120     0.3140 h1         1 NWL       0.047700
     23 HNAI         3.1790     1.6590    -1.5540 hn         1 NWL       0.208133
     24 HNAA         4.0730     0.3910    -1.0400 hn         1 NWL       0.208133
     25 HNAJ         4.8910     3.7310     3.2750 hn         1 NWL       0.229500
     26 HNAM         4.8100     3.5530    -2.0720 hn         1 NWL       0.273800
     27 HAN          4.7710     6.0100    -0.6550 h1         1 NWL       0.061700
     28 HANA         6.4390     5.4190    -0.6560 h1         1 NWL       0.061700
     29 HAP         -0.5430    -0.0000     3.3320 ha         1 NWL       0.118000
     30 HAQ          1.9230     0.0000     3.3320 ha         1 NWL       0.096500
     31 HAR          6.3700     5.2500    -3.1270 hc         1 NWL       0.020367
     32 HARA         4.7110     5.8640    -3.1170 hc         1 NWL       0.020367
     33 HARB         6.0410     6.9020    -2.5870 hc         1 NWL       0.020367
     34 HAS         -1.7740    -0.0010     1.1960 ha         1 NWL       0.120000
     35 HAI3         4.7910     1.6160    -1.8410 hn         1 NWL       0.208133
     36 OAE          4.0840     1.4250     3.4120 o          1 NWL      -0.650500
@<TRIPOS>BOND
     1     1     2 ar  
     2     1    18 ar  
     3     1    19 1   
     4     2     3 ar  
     5     2    20 1   
     6     3     4 1   
     7     3    15 ar  
     8     4     6 1   
     9     4    21 1   
    10     4    22 1   
    11     5     6 1   
    12     5     9 1   
    13     5    36 2   
    14     6     7 1   
    15     7     8 1   
    16     7    11 2   
    17     8    23 1   
    18     8    24 1   
    19     8    35 1   
    20     9    10 1   
    21     9    25 1   
    22    10    11 1   
    23    10    16 2   
    24    11    12 1   
    25    12    13 1   
    26    12    26 1   
    27    13    17 1   
    28    13    27 1   
    29    13    28 1   
    30    14    15 ar  
    31    14    18 ar  
    32    14    29 1   
    33    15    30 1   
    34    17    31 1   
    35    17    32 1   
    36    17    33 1   
    37    18    34 1   
@<TRIPOS>SUBSTRUCTURE
     1 NWL         1 TEMP              0 ****  ****    0 ROOT
