@<TRIPOS>MOLECULE
molecule
   92    92     1     0     0
SMALL
bcc


@<TRIPOS>ATOM
      1 C01          0.0000     0.0000     0.0000 ca         1 NWM      -0.106500
      2 C02          1.3820     0.0000     0.0000 ca         1 NWM      -0.133000
      3 C03          2.0740     0.0000     1.1970 ca         1 NWM      -0.123000
      4 C04          1.3820    -0.0010     2.3940 ca         1 NWM      -0.133000
      5 C05          0.0000    -0.0010     2.3940 ca         1 NWM      -0.106500
      6 C06         -0.6920    -0.0020     1.1970 ca         1 NWM      -0.087300
      7 C07         -2.1990    -0.0040     1.1970 c3         1 NWM       0.188700
      8 O08         -2.6730    -1.3510     1.1970 os         1 NWM      -0.429600
      9 C09         -4.0970    -1.4650     1.1960 c3         1 NWM       0.137400
     10 C10         -4.4910    -2.9450     1.1960 c3         1 NWM      -0.100400
     11 C11         -6.0150    -3.0670     1.1960 c3         1 NWM       0.150100
     12 O01         -6.5440    -2.5290    -0.0450 os         1 NWM      -0.430900
     13 C13         -6.8540    -1.2230    -0.0590 c          1 NWM       0.628100
     14 O02         -6.6880    -0.5510     0.9310 o          1 NWM      -0.555000
     15 C15         -7.4070    -0.5930    -1.3110 c3         1 NWM      -0.130400
     16 C16         -7.6710     0.8930    -1.0610 c3         1 NWM      -0.082100
     17 C25         -6.4090    -4.5400     1.3210 c3         1 NWM      -0.073700
     18 C18         -5.8510    -5.1080     2.6280 c3         1 NWM      -0.085100
     19 C26         -7.9340    -4.6630     1.3210 c3         1 NWM       0.153100
     20 O11         -8.4600    -4.0590     2.5040 oh         1 NWM      -0.605800
     21 C27         -8.3270    -6.1420     1.2850 c3         1 NWM      -0.097700
     22 C39         -9.8440    -6.2700     1.4330 c3         1 NWM      -0.092100
     23 C28         -7.8910    -6.7530    -0.0470 c3         1 NWM      -0.070400
     24 C29         -8.1710    -8.2580    -0.0340 c3         1 NWM      -0.181400
     25 C30         -7.7410    -8.8600    -1.3470 c          1 NWM       0.571100
     26 O12         -7.2610    -8.1590    -2.2050 o          1 NWM      -0.517100
     27 C31         -7.9110   -10.3380    -1.5890 c3         1 NWM      -0.176700
     28 C40         -6.7070   -11.0900    -1.0180 c3         1 NWM      -0.079100
     29 C32         -8.0090   -10.5990    -3.0930 c3         1 NWM       0.166100
     30 O13         -9.1260    -9.8520    -3.6430 os         1 NWM      -0.427900
     31 C44         -9.0220    -9.4510    -4.9200 c          1 NWM       0.636100
     32 O32         -8.0300    -9.7160    -5.5570 o          1 NWM      -0.550000
     33 C08        -10.1420    -8.6710    -5.5580 c3         1 NWM      -0.138100
     34 C33         -8.2260   -12.0950    -3.3370 c3         1 NWM      -0.094700
     35 C41         -8.1750   -12.3790    -4.8400 c3         1 NWM      -0.095100
     36 C34         -9.5920   -12.5080    -2.7860 c3         1 NWM      -0.101400
     37 C35         -9.7580   -14.0230    -2.9180 c3         1 NWM       0.101000
     38 N5         -11.0660   -14.4190    -2.3890 n          1 NWM      -0.506800
     39 C43        -11.2090   -14.7730    -0.9760 c3         1 NWM       0.101300
     40 C42        -12.1370   -14.4580    -3.2070 c          1 NWM       0.657900
     41 O14        -13.2210   -14.7870    -2.7700 o          1 NWM      -0.611100
     42 H011        -0.5420    -0.0000    -0.9380 ha         1 NWM       0.131500
     43 H021         1.9240     0.0010    -0.9380 ha         1 NWM       0.129000
     44 H031         3.1570     0.0000     1.1970 ha         1 NWM       0.128000
     45 H041         1.9240    -0.0000     3.3320 ha         1 NWM       0.129000
     46 H051        -0.5410    -0.0020     3.3320 ha         1 NWM       0.131500
     47 H071        -2.5600     0.5070     0.3130 h1         1 NWM       0.029700
     48 H072        -2.5600     0.5060     2.0820 h1         1 NWM       0.029700
     49 H092        -4.4980    -0.9850     0.3120 h1         1 NWM       0.032700
     50 H091        -4.4980    -0.9860     2.0810 h1         1 NWM       0.032700
     51 H101        -4.0900    -3.4250     0.3110 hc         1 NWM       0.066700
     52 H102        -4.0900    -3.4250     2.0800 hc         1 NWM       0.066700
     53 H111        -6.4220    -2.5120     2.0320 h1         1 NWM       0.084700
     54 H151        -8.3340    -1.0830    -1.5830 hc         1 NWM       0.070700
     55 H152        -6.6910    -0.7020    -2.1170 hc         1 NWM       0.070700
     56 H163        -6.7380     1.3920    -0.8300 hc         1 NWM       0.046700
     57 H162        -8.1070     1.3370    -1.9480 hc         1 NWM       0.046700
     58 H161        -8.3560     1.0040    -0.2290 hc         1 NWM       0.046700
     59 H251        -6.0030    -5.0950     0.4840 hc         1 NWM       0.072700
     60 H183        -6.2330    -6.1110     2.7780 hc         1 NWM       0.044367
     61 H182        -4.7690    -5.1370     2.5760 hc         1 NWM       0.044367
     62 H181        -6.1560    -4.4780     3.4550 hc         1 NWM       0.044367
     63 H261        -8.3360    -4.1610     0.4500 h1         1 NWM       0.045700
     64 H112        -9.2110    -3.5340     2.2810 ho         1 NWM       0.403000
     65 H271        -7.8390    -6.6650     2.0990 hc         1 NWM       0.063700
     66 H392       -10.3300    -5.8240     0.5730 hc         1 NWM       0.036700
     67 H393       -10.1630    -5.7580     2.3330 hc         1 NWM       0.036700
     68 H391       -10.1130    -7.3170     1.4980 hc         1 NWM       0.036700
     69 H281        -8.4440    -6.2900    -0.8550 hc         1 NWM       0.058200
     70 H282        -6.8300    -6.5850    -0.1920 hc         1 NWM       0.058200
     71 H292        -9.2310    -8.4260     0.1110 hc         1 NWM       0.067200
     72 H291        -7.6180    -8.7210     0.7740 hc         1 NWM       0.067200
     73 H311        -8.8160   -10.6820    -1.1030 hc         1 NWM       0.076700
     74 H403        -5.9230   -11.1370    -1.7640 hc         1 NWM       0.045367
     75 H402        -7.0050   -12.0950    -0.7440 hc         1 NWM       0.045367
     76 H401        -6.3400   -10.5710    -0.1410 hc         1 NWM       0.045367
     77 H321        -7.0910   -10.2840    -3.5760 h1         1 NWM       0.092700
     78 H332        -9.7280    -7.8600    -6.1450 hc         1 NWM       0.069033
     79 H333       -10.7860    -8.2670    -4.7870 hc         1 NWM       0.069033
     80 H331       -10.7170    -9.3260    -6.2020 hc         1 NWM       0.069033
     81 H334        -7.4490   -12.6590    -2.8360 hc         1 NWM       0.061700
     82 H412        -9.0960   -12.0440    -5.3020 hc         1 NWM       0.044367
     83 H413        -7.3370   -11.8510    -5.2790 hc         1 NWM       0.044367
     84 H411        -8.0560   -13.4440    -5.0020 hc         1 NWM       0.044367
     85 H341        -9.6610   -12.2270    -1.7420 hc         1 NWM       0.054700
     86 H1         -10.3740   -12.0100    -3.3470 hc         1 NWM       0.054700
     87 H351        -8.9760   -14.5220    -2.3570 h1         1 NWM       0.051700
     88 H2          -9.6900   -14.3050    -3.9610 h1         1 NWM       0.051700
     89 H431       -11.6780   -15.7460    -0.8920 h1         1 NWM       0.042033
     90 H432       -10.2310   -14.8020    -0.5100 h1         1 NWM       0.042033
     91 H433       -11.8240   -14.0320    -0.4790 h1         1 NWM       0.042033
     92 H421       -12.0250   -14.2260    -4.2590 h5         1 NWM       0.024200
@<TRIPOS>BOND
     1    16    15 1
     2     7     8 1
     3     7     6 1
     4    15    13 1
     5    14    13 2
     6     1     6 ar
     7     1     2 ar
     8     8     9 1
     9    13    12 1
    10     6     5 ar
    11    12    11 1
    12     2     3 ar
    13    10     9 1
    14    10    11 1
    15     5     4 ar
    16    11    17 1
    17     3     4 ar
    18    17    18 1
    19    17    19 1
    20    20    19 1
    21    19    21 1
    22    21    22 1
    23    21    23 1
    24    23    24 1
    25    24    25 1
    26    26    25 2
    27    25    27 1
    28    28    27 1
    29    27    29 1
    30    32    31 2
    31    31    33 1
    32    31    30 1
    33    29    30 1
    34    29    34 1
    35    34    36 1
    36    34    35 1
    37    37    36 1
    38    37    38 1
    39    39    38 1
    40    38    40 1
    41    40    41 2
    42     1    42 1
    43     2    43 1
    44     3    44 1
    45     4    45 1
    46     5    46 1
    47     7    47 1
    48     7    48 1
    49     9    49 1
    50     9    50 1
    51    10    51 1
    52    10    52 1
    53    11    53 1
    54    15    54 1
    55    15    55 1
    56    16    56 1
    57    16    57 1
    58    16    58 1
    59    17    59 1
    60    18    60 1
    61    18    61 1
    62    18    62 1
    63    19    63 1
    64    20    64 1
    65    21    65 1
    66    22    66 1
    67    22    67 1
    68    22    68 1
    69    23    69 1
    70    23    70 1
    71    24    71 1
    72    24    72 1
    73    27    73 1
    74    28    74 1
    75    28    75 1
    76    28    76 1
    77    29    77 1
    78    33    78 1
    79    33    79 1
    80    33    80 1
    81    34    81 1
    82    35    82 1
    83    35    83 1
    84    35    84 1
    85    36    85 1
    86    36    86 1
    87    37    87 1
    88    37    88 1
    89    39    89 1
    90    39    90 1
    91    39    91 1
    92    40    92 1
@<TRIPOS>SUBSTRUCTURE
     1 NWM         1 TEMP              0 ****  ****    0 ROOT
