@<TRIPOS>MOLECULE
NWM
   92    92     1     0     0
SMALL
bcc


@<TRIPOS>ATOM
      1 C01          0.0000     0.0000     0.0000 ca         1 NWM      -0.078500
      2 C02          1.3820     0.0000     0.0000 ca         1 NWM      -0.107000
      3 C03          2.0740     0.0000     1.1970 ca         1 NWM      -0.096000
      4 C04          1.3820    -0.0010     2.3940 ca         1 NWM      -0.107000
      5 C05          0.0000    -0.0010     2.3940 ca         1 NWM      -0.078500
      6 C06         -0.6920    -0.0020     1.1970 ca         1 NWM      -0.104300
      7 C07         -2.1990    -0.0040     1.1970 c3         1 NWM       0.273700
      8 O08         -2.6730    -1.3510     1.1970 os         1 NWM      -0.414600
      9 C09         -4.0970    -1.4650     1.1960 c3         1 NWM       0.198400
     10 C10         -4.4910    -2.9450     1.1960 c3         1 NWM      -0.067400
     11 C11         -6.0150    -3.0670     1.1960 c3         1 NWM       0.186100
     12 O01         -6.5440    -2.5290    -0.0450 os         1 NWM      -0.410900
     13 C13         -6.8540    -1.2230    -0.0590 c          1 NWM       0.690100
     14 O02         -6.6880    -0.5510     0.9310 o          1 NWM      -0.589000
     15 C15         -7.4070    -0.5930    -1.3110 c3         1 NWM      -0.071400
     16 C16         -7.6710     0.8930    -1.0610 c3         1 NWM       0.015900
     17 C25         -6.4090    -4.5400     1.3210 c3         1 NWM      -0.075700
     18 C18         -5.8510    -5.1080     2.6280 c3         1 NWM      -0.002100
     19 C26         -7.9340    -4.6630     1.3210 c3         1 NWM       0.194100
     20 O11         -8.4600    -4.0590     2.5040 oh         1 NWM      -0.583800
     21 C27         -8.3270    -6.1420     1.2850 c3         1 NWM      -0.088700
     22 C39         -9.8440    -6.2700     1.4330 c3         1 NWM      -0.002100
     23 C28         -7.8910    -6.7530    -0.0470 c3         1 NWM      -0.023400
     24 C29         -8.1710    -8.2580    -0.0340 c3         1 NWM      -0.128400
     25 C30         -7.7410    -8.8600    -1.3470 c          1 NWM       0.612100
     26 O12         -7.2610    -8.1590    -2.2050 o          1 NWM      -0.548100
     27 C31         -7.9110   -10.3380    -1.5890 c3         1 NWM      -0.165700
     28 C40         -6.7070   -11.0900    -1.0180 c3         1 NWM       0.019900
     29 C32         -8.0090   -10.5990    -3.0930 c3         1 NWM       0.196100
     30 O13         -9.1260    -9.8520    -3.6430 os         1 NWM      -0.408900
     31 C44         -9.0220    -9.4510    -4.9200 c          1 NWM       0.697100
     32 O32         -8.0300    -9.7160    -5.5570 o          1 NWM      -0.585000
     33 C08        -10.1420    -8.6710    -5.5580 c3         1 NWM      -0.035100
     34 C33         -8.2260   -12.0950    -3.3370 c3         1 NWM      -0.078700
     35 C41         -8.1750   -12.3790    -4.8400 c3         1 NWM      -0.016100
     36 C34         -9.5920   -12.5080    -2.7860 c3         1 NWM      -0.059400
     37 C35         -9.7580   -14.0230    -2.9180 c3         1 NWM       0.051000
     38 N5         -11.0660   -14.4190    -2.3890 n          1 NWM      -0.189800
     39 C43        -11.2090   -14.7730    -0.9760 c3         1 NWM       0.096300
     40 C42        -12.1370   -14.4580    -3.2070 c          1 NWM       0.625900
     41 O14        -13.2210   -14.7870    -2.7700 o          1 NWM      -0.648100
     42 H011        -0.5420    -0.0000    -0.9380 ha         1 NWM       0.105500
     43 H021         1.9240     0.0010    -0.9380 ha         1 NWM       0.102000
     44 H031         3.1570     0.0000     1.1970 ha         1 NWM       0.101000
     45 H041         1.9240    -0.0000     3.3320 ha         1 NWM       0.102000
     46 H051        -0.5410    -0.0020     3.3320 ha         1 NWM       0.105500
     47 H071        -2.5600     0.5070     0.3130 h1         1 NWM      -0.006800
     48 H072        -2.5600     0.5060     2.0820 h1         1 NWM      -0.006800
     49 H092        -4.4980    -0.9850     0.3120 h1         1 NWM       0.003200
     50 H091        -4.4980    -0.9860     2.0810 h1         1 NWM       0.003200
     51 H101        -4.0900    -3.4250     0.3110 hc         1 NWM       0.038200
     52 H102        -4.0900    -3.4250     2.0800 hc         1 NWM       0.038200
     53 H111        -6.4220    -2.5120     2.0320 h1         1 NWM       0.055700
     54 H151        -8.3340    -1.0830    -1.5830 hc         1 NWM       0.034200
     55 H152        -6.6910    -0.7020    -2.1170 hc         1 NWM       0.034200
     56 H163        -6.7380     1.3920    -0.8300 hc         1 NWM       0.010700
     57 H162        -8.1070     1.3370    -1.9480 hc         1 NWM       0.010700
     58 H161        -8.3560     1.0040    -0.2290 hc         1 NWM       0.010700
     59 H251        -6.0030    -5.0950     0.4840 hc         1 NWM       0.050700
     60 H183        -6.2330    -6.1110     2.7780 hc         1 NWM       0.014367
     61 H182        -4.7690    -5.1370     2.5760 hc         1 NWM       0.014367
     62 H181        -6.1560    -4.4780     3.4550 hc         1 NWM       0.014367
     63 H261        -8.3360    -4.1610     0.4500 h1         1 NWM       0.013700
     64 H112        -9.2110    -3.5340     2.2810 ho         1 NWM       0.391000
     65 H271        -7.8390    -6.6650     2.0990 hc         1 NWM       0.045700
     66 H392       -10.3300    -5.8240     0.5730 hc         1 NWM       0.007033
     67 H393       -10.1630    -5.7580     2.3330 hc         1 NWM       0.007033
     68 H391       -10.1130    -7.3170     1.4980 hc         1 NWM       0.007033
     69 H281        -8.4440    -6.2900    -0.8550 hc         1 NWM       0.033200
     70 H282        -6.8300    -6.5850    -0.1920 hc         1 NWM       0.033200
     71 H292        -9.2310    -8.4260     0.1110 hc         1 NWM       0.040200
     72 H291        -7.6180    -8.7210     0.7740 hc         1 NWM       0.040200
     73 H311        -8.8160   -10.6820    -1.1030 hc         1 NWM       0.053700
     74 H403        -5.9230   -11.1370    -1.7640 hc         1 NWM       0.011700
     75 H402        -7.0050   -12.0950    -0.7440 hc         1 NWM       0.011700
     76 H401        -6.3400   -10.5710    -0.1410 hc         1 NWM       0.011700
     77 H321        -7.0910   -10.2840    -3.5760 h1         1 NWM       0.065700
     78 H332        -9.7280    -7.8600    -6.1450 hc         1 NWM       0.028033
     79 H333       -10.7860    -8.2670    -4.7870 hc         1 NWM       0.028033
     80 H331       -10.7170    -9.3260    -6.2020 hc         1 NWM       0.028033
     81 H334        -7.4490   -12.6590    -2.8360 hc         1 NWM       0.041700
     82 H412        -9.0960   -12.0440    -5.3020 hc         1 NWM       0.017033
     83 H413        -7.3370   -11.8510    -5.2790 hc         1 NWM       0.017033
     84 H411        -8.0560   -13.4440    -5.0020 hc         1 NWM       0.017033
     85 H341        -9.6610   -12.2270    -1.7420 hc         1 NWM       0.029200
     86 H1         -10.3740   -12.0100    -3.3470 hc         1 NWM       0.029200
     87 H351        -8.9760   -14.5220    -2.3570 h1         1 NWM       0.026200
     88 H2          -9.6900   -14.3050    -3.9610 h1         1 NWM       0.026200
     89 H431       -11.6780   -15.7460    -0.8920 h1         1 NWM       0.009367
     90 H432       -10.2310   -14.8020    -0.5100 h1         1 NWM       0.009367
     91 H433       -11.8240   -14.0320    -0.4790 h1         1 NWM       0.009367
     92 H421       -12.0250   -14.2260    -4.2590 h5         1 NWM      -0.017800
@<TRIPOS>BOND
     1     1     2 ar  
     2     1     6 ar  
     3     1    42 1   
     4     2     3 ar  
     5     2    43 1   
     6     3     4 ar  
     7     3    44 1   
     8     4     5 ar  
     9     4    45 1   
    10     5     6 ar  
    11     5    46 1   
    12     6     7 1   
    13     7     8 1   
    14     7    47 1   
    15     7    48 1   
    16     8     9 1   
    17     9    10 1   
    18     9    49 1   
    19     9    50 1   
    20    10    11 1   
    21    10    51 1   
    22    10    52 1   
    23    11    12 1   
    24    11    17 1   
    25    11    53 1   
    26    12    13 1   
    27    13    14 2   
    28    13    15 1   
    29    15    16 1   
    30    15    54 1   
    31    15    55 1   
    32    16    56 1   
    33    16    57 1   
    34    16    58 1   
    35    17    18 1   
    36    17    19 1   
    37    17    59 1   
    38    18    60 1   
    39    18    61 1   
    40    18    62 1   
    41    19    20 1   
    42    19    21 1   
    43    19    63 1   
    44    20    64 1   
    45    21    22 1   
    46    21    23 1   
    47    21    65 1   
    48    22    66 1   
    49    22    67 1   
    50    22    68 1   
    51    23    24 1   
    52    23    69 1   
    53    23    70 1   
    54    24    25 1   
    55    24    71 1   
    56    24    72 1   
    57    25    26 2   
    58    25    27 1   
    59    27    28 1   
    60    27    29 1   
    61    27    73 1   
    62    28    74 1   
    63    28    75 1   
    64    28    76 1   
    65    29    30 1   
    66    29    34 1   
    67    29    77 1   
    68    30    31 1   
    69    31    32 2   
    70    31    33 1   
    71    33    78 1   
    72    33    79 1   
    73    33    80 1   
    74    34    35 1   
    75    34    36 1   
    76    34    81 1   
    77    35    82 1   
    78    35    83 1   
    79    35    84 1   
    80    36    37 1   
    81    36    85 1   
    82    36    86 1   
    83    37    38 1   
    84    37    87 1   
    85    37    88 1   
    86    38    39 1   
    87    38    40 1   
    88    39    89 1   
    89    39    90 1   
    90    39    91 1   
    91    40    41 2   
    92    40    92 1   
@<TRIPOS>SUBSTRUCTURE
     1 NWM         1 TEMP              0 ****  ****    0 ROOT
