@<TRIPOS>MOLECULE
molecule
   25    26     1     0     0
SMALL
bcc


@<TRIPOS>ATOM
      1 C1           0.0000     0.0000     0.0000 cc         1 NX1      -0.039100
      2 C2           1.3770     0.0000     0.0000 cd         1 NX1       0.014300
      3 S3          -0.9730    -0.0060    -1.4690 ss         1 NX1      -0.103000
      4 C4          -0.5390    -0.0000     1.2730 cc         1 NX1      -0.169000
      5 S5           1.9500     0.0000     1.6620 ss         1 NX1      -0.069800
      6 C6           2.1970    -0.0010    -1.1490 c          1 NX1       0.890200
      7 C7          -2.6720    -0.0040    -0.8330 c3         1 NX1      -0.027000
      8 C8           0.3540     0.0000     2.2660 cd         1 NX1      -0.165100
      9 O9           3.5410    -0.0020    -1.0200 o          1 NX1      -0.816800
     10 O10          1.6920    -0.0020    -2.2570 o          1 NX1      -0.816800
     11 C11         -3.6410    -0.0090    -1.9880 ca         1 NX1      -0.039300
     12 C12         -4.0850    -1.2080    -2.5110 ca         1 NX1      -0.085000
     13 C13         -4.0890     1.1860    -2.5190 ca         1 NX1      -0.099000
     14 C14         -4.9740    -1.2140    -3.5700 ca         1 NX1      -0.013900
     15 C15         -4.9790     1.1830    -3.5770 ca         1 NX1      -0.123000
     16 C16         -5.4190    -0.0170    -4.1050 ca         1 NX1       0.037400
     17 Br17        -5.5810    -2.8550    -4.2870 br         1 NX1      -0.092100
     18 Cl18        -6.5360    -0.0230    -5.4350 cl         1 NX1      -0.110400
     19 H4          -1.6070    -0.0000     1.4530 ha         1 NX1       0.118000
     20 H7          -2.8310     0.8840    -0.2320 h1         1 NX1       0.060200
     21 H7A         -2.8310    -0.8850    -0.2240 h1         1 NX1       0.060200
     22 H8           0.0990     0.0000     3.3190 h4         1 NX1       0.144000
     23 H12         -3.7360    -2.1440    -2.0910 ha         1 NX1       0.157000
     24 H13         -3.7440     2.1260    -2.1050 ha         1 NX1       0.147000
     25 H15         -5.3280     2.1190    -3.9950 ha         1 NX1       0.142000
@<TRIPOS>BOND
     1     3     1 1
     2     1     2 2
     3     1     4 1
     4     6     2 1
     5     2     5 1
     6     3     7 1
     7     4     8 2
     8     4    19 1
     9     5     8 1
    10    10     6 1
    11     6     9 1
    12    11     7 1
    13     7    20 1
    14     7    21 1
    15     8    22 1
    16    13    11 ar
    17    12    11 ar
    18    14    12 ar
    19    12    23 1
    20    15    13 ar
    21    13    24 1
    22    16    14 ar
    23    17    14 1
    24    16    15 ar
    25    15    25 1
    26    18    16 1
@<TRIPOS>SUBSTRUCTURE
     1 NX1         1 TEMP              0 ****  ****    0 ROOT
