@<TRIPOS>MOLECULE
NX1
   25    27     1     0     0
SMALL
bcc


@<TRIPOS>ATOM
      1 C1         -0.1550    0.0030    0.1450 cc        1 NX1      0.133500
      2 C2          1.2450    0.0700    0.0580 cd        1 NX1     -0.230700
      3 S3         -0.9240    0.0200   -1.3340 s4        1 NX1     -0.482000
      4 C4         -0.5780   -0.0640    1.5090 cc        1 NX1     -0.150000
      5 S5          1.9580    0.0490    1.5570 ss        1 NX1      0.037200
      6 C6          1.7700    0.1440   -1.3260 c         1 NX1      0.771200
      7 C7         -2.6690   -0.0570   -0.7840 c3        1 NX1      0.017200
      8 C8          0.4990   -0.0450    2.3700 cd        1 NX1     -0.195100
      9 O9          2.9760    0.2160   -1.6420 o         1 NX1     -0.751500
     10 O10         0.8180    0.1300   -2.2220 os        1 NX1     -0.369900
     11 C11        -3.5430   -0.0450   -1.9560 ca        1 NX1      0.030700
     12 C12        -4.0630   -1.2420   -2.4780 ca        1 NX1     -0.126000
     13 C13        -3.8830    1.1650   -2.5860 ca        1 NX1     -0.134000
     14 C14        -4.9090   -1.2350   -3.5870 ca        1 NX1     -0.005900
     15 C15        -4.7210    1.1790   -3.6940 ca        1 NX1     -0.117000
     16 C16        -5.2420   -0.0180   -4.1960 ca        1 NX1     -0.001600
     17 BR17       -5.5840   -2.8630   -4.2310 br        1 NX1     -0.110100
     18 CL18       -6.2780    0.0380   -5.5470 cl        1 NX1     -0.114400
     19 H4         -1.6270   -0.1220    1.8050 ha        1 NX1      0.138000
     20 H7         -2.8110   -0.9810   -0.1770 h1        1 NX1      0.046200
     21 H7A        -2.8640    0.8250   -0.1300 h1        1 NX1      0.046200
     22 H8          0.4340   -0.0860    3.4540 h4        1 NX1      0.144000
     23 H12        -3.7840   -2.1940   -2.0000 ha        1 NX1      0.149000
     24 H13        -3.4670    2.1070   -2.2000 ha        1 NX1      0.143000
     25 H15        -4.9740    2.1330   -4.1810 ha        1 NX1      0.135000
@<TRIPOS>BOND
     1    1    2 2   
     2    1    3 1   
     3    1    4 1   
     4    2    5 1   
     5    2    6 1   
     6    3    7 1   
     7    3   10 1   
     8    4    8 2   
     9    4   19 1   
    10    5    8 1   
    11    6    9 2   
    12    6   10 1   
    13    7   11 1   
    14    7   20 1   
    15    7   21 1   
    16    8   22 1   
    17   11   12 ar  
    18   11   13 ar  
    19   12   14 ar  
    20   12   23 1   
    21   13   15 ar  
    22   13   24 1   
    23   14   16 ar  
    24   14   17 1   
    25   15   16 ar  
    26   15   25 1   
    27   16   18 1   
@<TRIPOS>SUBSTRUCTURE
     1 NX1         1 TEMP              0 ****  ****    0 ROOT
