@<TRIPOS>MOLECULE
NX2
   33    34     1     0     0
SMALL
bcc


@<TRIPOS>ATOM
      1 C1           0.0000     0.0000     0.0000 cc         1 NX2       0.116900
      2 C2           1.3830     0.0000     0.0000 cc         1 NX2      -0.167000
      3 C3           1.9500     0.0000     1.2090 cd         1 NX2       0.027900
      4 S4           0.7720    -0.0010     2.4430 ss         1 NX2      -0.201800
      5 C5          -0.5360    -0.0000     1.2670 cd         1 NX2      -0.092700
      6 S6          -0.9740     0.0080    -1.4680 ss         1 NX2      -0.222000
      7 C7           0.2740     0.0060    -2.7850 c3         1 NX2       0.115000
      8 C8          -0.4120     0.0120    -4.1280 ca         1 NX2      -0.071300
      9 C9          -0.7210     1.2120    -4.7390 ca         1 NX2      -0.071000
     10 C10         -1.3550    -1.1780    -5.9790 ca         1 NX2      -0.087000
     11 C11         -0.7270    -1.1820    -4.7480 ca         1 NX2      -0.075000
     12 C12         -1.3500     1.2190    -5.9720 ca         1 NX2      -0.039600
     13 C13         -1.6700     0.0210    -6.5900 ca         1 NX2      -0.034600
     14 Cl14        -2.4590     0.0280    -8.1370 cl         1 NX2      -0.000400
     15 Cl15        -1.7390     2.7250    -6.7400 cl         1 NX2       0.003600
     16 C16         -1.9160     0.0000     1.5750 c          1 NX2       0.697700
     17 N17         -2.3190    -0.0010     2.8610 ns         1 NX2      -0.319300
     18 O18         -2.7400     0.0010     0.6790 o          1 NX2      -0.587100
     19 S19         -3.9360     0.0010     3.2210 s6         1 NX2       0.955600
     20 C20         -4.5400    -1.5900     2.5940 c3         1 NX2       0.019700
     21 O21         -3.9780     0.0260     4.6420 o          1 NX2      -0.568300
     22 O22         -4.4650     1.0730     2.4540 o          1 NX2      -0.568300
     23 H2           1.9640     0.0000    -0.9140 ha         1 NX2       0.132000
     24 H3           3.0190    -0.0000     1.3830 h4         1 NX2       0.152000
     25 H7           0.8970     0.8880    -2.6940 h1         1 NX2       0.041700
     26 H7A          0.8900    -0.8810    -2.6980 h1         1 NX2       0.041700
     27 H9          -0.4700     2.1480    -4.2550 ha         1 NX2       0.124000
     28 H10         -1.6030    -2.1150    -6.4630 ha         1 NX2       0.119000
     29 H11         -0.4800    -2.1220    -4.2690 ha         1 NX2       0.113000
     30 HN17        -1.6420     0.0290     3.5980 hn         1 NX2       0.240500
     31 H20         -4.8430    -1.4790     1.5600 h1         1 NX2       0.068033
     32 H20A        -5.3880    -1.9130     3.1860 h1         1 NX2       0.068033
     33 H20B        -3.7510    -2.3290     2.6610 h1         1 NX2       0.068033
@<TRIPOS>BOND
     1     1     2 1   
     2     1     5 2   
     3     1     6 1   
     4     2     3 2   
     5     2    23 1   
     6     3     4 1   
     7     3    24 1   
     8     4     5 1   
     9     5    16 1   
    10     6     7 1   
    11     7     8 1   
    12     7    25 1   
    13     7    26 1   
    14     8     9 ar  
    15     8    11 ar  
    16     9    12 ar  
    17     9    27 1   
    18    10    11 ar  
    19    10    13 ar  
    20    10    28 1   
    21    11    29 1   
    22    12    13 ar  
    23    12    15 1   
    24    13    14 1   
    25    16    17 1   
    26    16    18 2   
    27    17    19 1   
    28    17    30 1   
    29    19    20 1   
    30    19    21 2   
    31    19    22 2   
    32    20    31 1   
    33    20    32 1   
    34    20    33 1   
@<TRIPOS>SUBSTRUCTURE
     1 NX2         1 TEMP              0 ****  ****    0 ROOT
