@<TRIPOS>MOLECULE
molecule
   33    34     1     0     0
SMALL
bcc


@<TRIPOS>ATOM
      1 C1           0.0000     0.0000     0.0000 cc         1 NX2       0.072900
      2 C2           1.3830     0.0000     0.0000 cc         1 NX2      -0.189000
      3 C3           1.9500     0.0000     1.2090 cd         1 NX2      -0.058100
      4 S4           0.7720    -0.0010     2.4430 ss         1 NX2      -0.072800
      5 C5          -0.5360    -0.0000     1.2670 cd         1 NX2      -0.148700
      6 S6          -0.9740     0.0080    -1.4680 ss         1 NX2      -0.088000
      7 C7           0.2740     0.0060    -2.7850 c3         1 NX2       0.000000
      8 C8          -0.4120     0.0120    -4.1280 ca         1 NX2      -0.068300
      9 C9          -0.7210     1.2120    -4.7390 ca         1 NX2      -0.098000
     10 C10         -1.3550    -1.1780    -5.9790 ca         1 NX2      -0.112000
     11 C11         -0.7270    -1.1820    -4.7480 ca         1 NX2      -0.105000
     12 C12         -1.3500     1.2190    -5.9720 ca         1 NX2       0.030400
     13 C13         -1.6700     0.0210    -6.5900 ca         1 NX2       0.035400
     14 Cl14        -2.4590     0.0280    -8.1370 cl         1 NX2      -0.082400
     15 Cl15        -1.7390     2.7250    -6.7400 cl         1 NX2      -0.079400
     16 C16         -1.9160     0.0000     1.5750 c          1 NX2       0.728700
     17 N17         -2.3190    -0.0010     2.8610 ns         1 NX2      -0.654300
     18 O18         -2.7400     0.0010     0.6790 o          1 NX2      -0.562100
     19 S19         -3.9360     0.0010     3.2210 s6         1 NX2       1.318600
     20 C20         -4.5400    -1.5900     2.5940 c3         1 NX2      -0.236300
     21 O21         -3.9780     0.0260     4.6420 o          1 NX2      -0.609800
     22 O22         -4.4650     1.0730     2.4540 o          1 NX2      -0.609800
     23 H2           1.9640     0.0000    -0.9140 ha         1 NX2       0.154000
     24 H3           3.0190    -0.0000     1.3830 h4         1 NX2       0.178000
     25 H7           0.8970     0.8880    -2.6940 h1         1 NX2       0.071700
     26 H7A          0.8900    -0.8810    -2.6980 h1         1 NX2       0.071700
     27 H9          -0.4700     2.1480    -4.2550 ha         1 NX2       0.156000
     28 H10         -1.6030    -2.1150    -6.4630 ha         1 NX2       0.153000
     29 H11         -0.4800    -2.1220    -4.2690 ha         1 NX2       0.144000
     30 HN17        -1.6420     0.0290     3.5980 hn         1 NX2       0.345500
     31 H20         -4.8430    -1.4790     1.5600 h1         1 NX2       0.104367
     32 H20A        -5.3880    -1.9130     3.1860 h1         1 NX2       0.104367
     33 H20B        -3.7510    -2.3290     2.6610 h1         1 NX2       0.104367
@<TRIPOS>BOND
     1     6     1 1
     2     1     5 2
     3     1     2 1
     4     2     3 2
     5     2    23 1
     6     4     3 1
     7     3    24 1
     8     5     4 1
     9    16     5 1
    10     6     7 1
    11     8     7 1
    12     7    25 1
    13     7    26 1
    14    11     8 ar
    15     9     8 ar
    16    12     9 ar
    17     9    27 1
    18    13    10 ar
    19    10    11 ar
    20    10    28 1
    21    11    29 1
    22    13    12 ar
    23    15    12 1
    24    14    13 1
    25    18    16 2
    26    16    17 1
    27    19    17 1
    28    17    30 1
    29    21    19 2
    30    20    19 1
    31    19    22 2
    32    20    31 1
    33    20    32 1
    34    20    33 1
@<TRIPOS>SUBSTRUCTURE
     1 NX2         1 TEMP              0 ****  ****    0 ROOT
