@<TRIPOS>MOLECULE
NX3
   42    44     1     0     0
SMALL
bcc


@<TRIPOS>ATOM
      1 S1           0.0000     0.0000     0.0000 ss         1 NX3      -0.203800
      2 C2           1.7590     0.0000     0.0000 cc         1 NX3      -0.090700
      3 C3           2.2070     0.0000     1.3000 cd         1 NX3       0.116900
      4 C4           1.1790     0.0000     2.2250 cd         1 NX3      -0.167000
      5 C5          -0.0490     0.0000     1.7050 cc         1 NX3       0.026900
      6 C6           2.5790     0.0000    -1.1520 c          1 NX3       0.697700
      7 N7           2.0190     0.0010    -2.3780 ns         1 NX3      -0.303300
      8 O8           3.7920     0.0000    -1.0360 o          1 NX3      -0.586100
      9 S9           2.9810     0.0010    -3.7270 sy         1 NX3       1.041900
     10 S10          3.9130     0.0000     1.7420 ss         1 NX3      -0.223000
     11 C11          3.8660     0.0000     3.5550 c3         1 NX3       0.114000
     12 C12          5.2730    -0.0000     4.0950 ca         1 NX3      -0.070300
     13 C13          5.9190     1.1970     4.3410 ca         1 NX3      -0.072000
     14 C14          7.2090     1.1980     4.8370 ca         1 NX3      -0.086000
     15 C15          7.8560     0.0010     5.0840 ca         1 NX3      -0.035600
     16 C16          7.2090    -1.1990     4.8370 ca         1 NX3      -0.039600
     17 C17          5.9160    -1.1970     4.3470 ca         1 NX3      -0.074000
     18 Cl18         8.0190    -2.7020     5.1480 cl         1 NX3       0.000600
     19 Cl19         9.4760     0.0020     5.7060 cl         1 NX3       0.000600
     20 O20          2.1040    -0.0330    -4.8450 o          1 NX3      -0.571300
     21 O21          3.9490     1.0230    -3.5300 o          1 NX3      -0.571300
     22 C22          3.8630    -1.5240    -3.7390 ca         1 NX3      -0.157500
     23 C23          5.0890    -1.6180    -3.1090 ca         1 NX3       0.022000
     24 C24          5.7860    -2.8130    -3.1170 ca         1 NX3      -0.130000
     25 C25          5.2550    -3.9180    -3.7540 ca         1 NX3      -0.057000
     26 C26          4.0230    -3.8280    -4.3880 ca         1 NX3      -0.007400
     27 C27          3.3240    -2.6270    -4.3740 ca         1 NX3      -0.013000
     28 N28          3.4840    -4.9430    -5.0330 nv         1 NX3      -0.556200
     29 H4           1.3580     0.0000     3.2940 ha         1 NX3       0.132000
     30 H5          -0.9610     0.0000     2.2910 h4         1 NX3       0.152000
     31 HN7          1.0240     0.0430    -2.4730 hn         1 NX3       0.236500
     32 H11          3.3460     0.8850     3.9030 h1         1 NX3       0.042200
     33 H11A         3.3460    -0.8840     3.9030 h1         1 NX3       0.042200
     34 H13          5.4130     2.1350     4.1480 ha         1 NX3       0.115000
     35 H14          7.7140     2.1370     5.0300 ha         1 NX3       0.120000
     36 H17          5.4090    -2.1350     4.1530 ha         1 NX3       0.123000
     37 H23          5.5070    -0.7520    -2.6090 ha         1 NX3       0.144000
     38 H24          6.7470    -2.8830    -2.6220 ha         1 NX3       0.111000
     39 H25          5.8010    -4.8540    -3.7610 ha         1 NX3       0.106000
     40 H27          2.3630    -2.5520    -4.8680 ha         1 NX3       0.124000
     41 HN28         2.8920    -5.5750    -4.5300 hn         1 NX3       0.273300
     42 HN2A         3.6810    -5.1060    -6.0010 hn         1 NX3       0.273300
@<TRIPOS>BOND
     1     1     2 1   
     2     1     5 1   
     3     2     3 2   
     4     2     6 1   
     5     3     4 1   
     6     3    10 1   
     7     4     5 2   
     8     4    29 1   
     9     5    30 1   
    10     6     7 1   
    11     6     8 2   
    12     7     9 1   
    13     7    31 1   
    14     9    20 2   
    15     9    21 2   
    16     9    22 1   
    17    10    11 1   
    18    11    12 1   
    19    11    32 1   
    20    11    33 1   
    21    12    13 ar  
    22    12    17 ar  
    23    13    14 ar  
    24    13    34 1   
    25    14    15 ar  
    26    14    35 1   
    27    15    16 ar  
    28    15    19 1   
    29    16    17 ar  
    30    16    18 1   
    31    17    36 1   
    32    22    23 ar  
    33    22    27 ar  
    34    23    24 ar  
    35    23    37 1   
    36    24    25 ar  
    37    24    38 1   
    38    25    26 ar  
    39    25    39 1   
    40    26    27 ar  
    41    26    28 1   
    42    27    40 1   
    43    28    41 1   
    44    28    42 1   
@<TRIPOS>SUBSTRUCTURE
     1 NX3         1 TEMP              0 ****  ****    0 ROOT
