@<TRIPOS>MOLECULE
NX4
   46    48     1     0     0
SMALL
bcc


@<TRIPOS>ATOM
      1 C1           0.0000     0.0000     0.0000 cc         1 NX4       0.098900
      2 C2           2.1970    -0.0000    -1.1510 c          1 NX4       0.672700
      3 N3           3.5380    -0.0010    -1.0220 ns         1 NX4      -0.308300
      4 S4          -0.9740     0.0070    -1.4690 ss         1 NX4      -0.182000
      5 C5          -2.6730     0.0050    -0.8330 c3         1 NX4       0.104000
      6 C6          -3.6410     0.0090    -1.9870 ca         1 NX4      -0.062300
      7 C7          -4.0860    -1.1850    -2.5210 ca         1 NX4      -0.076000
      8 C8          -4.9750    -1.1820    -3.5790 ca         1 NX4      -0.090000
      9 C9          -5.4200     0.0170    -4.1060 ca         1 NX4      -0.031600
     10 C10         -4.9750     1.2140    -3.5700 ca         1 NX4      -0.030600
     11 C11         -4.0890     1.2090    -2.5070 ca         1 NX4      -0.065000
     12 Cl12        -6.5350     0.0220    -5.4350 cl         1 NX4      -0.015400
     13 Cl13        -5.5320     2.7200    -4.2280 cl         1 NX4      -0.001400
     14 O14          1.6910    -0.0010    -2.2600 o          1 NX4      -0.535100
     15 S15          4.5000    -0.0010    -2.3710 sy         1 NX4       1.035900
     16 O16          5.8420     0.0330    -1.9070 o          1 NX4      -0.585800
     17 O17          3.9970    -1.0220    -3.2210 o          1 NX4      -0.585800
     18 C18          1.3760     0.0000     0.0000 cd         1 NX4      -0.058700
     19 C19         -0.5390     0.0000     1.2740 cc         1 NX4      -0.159000
     20 C20          0.3540     0.0010     2.2660 cd         1 NX4      -0.001100
     21 S21          1.9480     0.0000     1.6630 ss         1 NX4      -0.224800
     22 C22          4.2240     1.5240    -3.2090 ca         1 NX4      -0.225500
     23 C23          5.0030     2.6280    -2.9040 ca         1 NX4       0.010000
     24 C24          4.7970     3.8300    -3.5530 ca         1 NX4      -0.285000
     25 C25          3.8050     3.9380    -4.5170 ca         1 NX4       0.216100
     26 C26          3.0140     2.8220    -4.8290 ca         1 NX4      -0.168600
     27 C27          3.2380     1.6110    -4.1670 ca         1 NX4       0.088000
     28 O28          3.6010     5.1170    -5.1550 os         1 NX4      -0.228900
     29 C29          4.4440     6.2090    -4.7850 c3         1 NX4       0.224700
     30 C30          1.9580     2.9240    -5.8510 c          1 NX4       0.975200
     31 O31          1.2010     1.8490    -6.1480 o          1 NX4      -0.873800
     32 O32          1.7700     3.9780    -6.4270 o          1 NX4      -0.873800
     33 HN3          3.9530    -0.0380    -0.1120 hn         1 NX4       0.221500
     34 H5          -2.8320    -0.8820    -0.2310 h1         1 NX4       0.035200
     35 H5A         -2.8320     0.8870    -0.2240 h1         1 NX4       0.035200
     36 H7          -3.7380    -2.1250    -2.1090 ha         1 NX4       0.111000
     37 H8          -5.3220    -2.1190    -3.9970 ha         1 NX4       0.114000
     38 H11         -3.7490     2.1450    -2.0810 ha         1 NX4       0.125000
     39 H19         -1.6070     0.0000     1.4530 ha         1 NX4       0.126000
     40 H20          0.0980     0.0010     3.3180 h4         1 NX4       0.144000
     41 H23          5.7790     2.5490    -2.1520 ha         1 NX4       0.097000
     42 H24          5.4100     4.6890    -3.3090 ha         1 NX4       0.109000
     43 H27          2.6900     0.7240    -4.4610 ha         1 NX4       0.168000
     44 H29          4.1770     7.0840    -5.3650 h1         1 NX4      -0.013633
     45 H29A         4.3170     6.4230    -3.7310 h1         1 NX4      -0.013633
     46 H29B         5.4780     5.9490    -4.9780 h1         1 NX4      -0.013633
@<TRIPOS>BOND
     1     1     4 1   
     2     1    18 2   
     3     1    19 1   
     4     2     3 1   
     5     2    14 2   
     6     2    18 1   
     7     3    15 1   
     8     3    33 1   
     9     4     5 1   
    10     5     6 1   
    11     5    34 1   
    12     5    35 1   
    13     6     7 ar  
    14     6    11 ar  
    15     7     8 ar  
    16     7    36 1   
    17     8     9 ar  
    18     8    37 1   
    19     9    10 ar  
    20     9    12 1   
    21    10    11 ar  
    22    10    13 1   
    23    11    38 1   
    24    15    16 2   
    25    15    17 2   
    26    15    22 1   
    27    18    21 1   
    28    19    20 2   
    29    19    39 1   
    30    20    21 1   
    31    20    40 1   
    32    22    23 ar  
    33    22    27 ar  
    34    23    24 ar  
    35    23    41 1   
    36    24    25 ar  
    37    24    42 1   
    38    25    26 ar  
    39    25    28 1   
    40    26    27 ar  
    41    26    30 1   
    42    27    43 1   
    43    28    29 1   
    44    29    44 1   
    45    29    45 1   
    46    29    46 1   
    47    30    31 1   
    48    30    32 1   
@<TRIPOS>SUBSTRUCTURE
     1 NX4         1 TEMP              0 ****  ****    0 ROOT
