@<TRIPOS>MOLECULE
molecule
   28    29     1     0     0
SMALL
bcc


@<TRIPOS>ATOM
      1 C1           0.0000     0.0000     0.0000 ca         1 NX5       0.032900
      2 S2          -0.8850     0.0080    -1.5220 ss         1 NX5      -0.073000
      3 C3           0.4970     0.0060    -2.6900 c3         1 NX5      -0.061000
      4 C4          -0.0370     0.0120    -4.1000 ca         1 NX5      -0.026300
      5 C5          -0.2760     1.2140    -4.7430 ca         1 NX5      -0.107000
      6 C6          -0.7690    -1.1770    -6.0440 ca         1 NX5      -0.116000
      7 C7          -0.2800    -1.1820    -4.7520 ca         1 NX5      -0.113000
      8 C8          -0.7650     1.2190    -6.0360 ca         1 NX5       0.034400
      9 C9          -1.0140     0.0220    -6.6870 ca         1 NX5       0.017400
     10 Cl10        -1.6280     0.0300    -8.3110 cl         1 NX5      -0.114400
     11 Cl11        -1.0660     2.7270    -6.8440 cl         1 NX5      -0.107400
     12 C12          1.3910     0.0000     0.0000 ca         1 NX5      -0.180000
     13 C13          2.0820     0.0000     1.1940 ca         1 NX5      -0.135000
     14 C14          1.3990    -0.0010     2.4010 ca         1 NX5      -0.173000
     15 C15          0.0230    -0.0020     2.4230 ca         1 NX5      -0.077000
     16 C16         -0.6940    -0.0010     1.2220 ca         1 NX5      -0.095600
     17 C17         -2.1660     0.0000     1.2380 c          1 NX5       0.880200
     18 O18         -2.8270    -0.0010     2.4120 o          1 NX5      -0.814300
     19 O19         -2.7850     0.0010     0.1920 o          1 NX5      -0.814300
     20 H3           1.1060     0.8880    -2.5310 h1         1 NX5       0.060200
     21 H3A          1.0990    -0.8810    -2.5360 h1         1 NX5       0.060200
     22 H5          -0.0810     2.1490    -4.2330 ha         1 NX5       0.156000
     23 H6          -0.9620    -2.1140    -6.5540 ha         1 NX5       0.141000
     24 H7          -0.0880    -2.1220    -4.2490 ha         1 NX5       0.146000
     25 H12          1.9320     0.0010    -0.9380 ha         1 NX5       0.112000
     26 H13          3.1660     0.0000     1.1890 ha         1 NX5       0.103000
     27 H14          1.9530    -0.0010     3.3320 ha         1 NX5       0.107000
     28 H15         -0.5040    -0.0020     3.3690 ha         1 NX5       0.157000
@<TRIPOS>BOND
     1     2     1 1
     2     1    16 ar
     3     1    12 ar
     4     2     3 1
     5     4     3 1
     6     3    20 1
     7     3    21 1
     8     7     4 ar
     9     5     4 ar
    10     8     5 ar
    11     5    22 1
    12     9     6 ar
    13     6     7 ar
    14     6    23 1
    15     7    24 1
    16     9     8 ar
    17    11     8 1
    18    10     9 1
    19    12    13 ar
    20    12    25 1
    21    13    14 ar
    22    13    26 1
    23    15    14 ar
    24    14    27 1
    25    16    15 ar
    26    15    28 1
    27    17    16 1
    28    19    17 1
    29    17    18 1
@<TRIPOS>SUBSTRUCTURE
     1 NX5         1 TEMP              0 ****  ****    0 ROOT
