@<TRIPOS>MOLECULE
molecule
   30    30     1     0     0
SMALL
bcc


@<TRIPOS>ATOM
      1 C            0.0000     0.0000     0.0000 c          1 NX6       0.886600
      2 N            1.9960     1.1950    -0.6910 ns         1 NX6      -0.481900
      3 O           -0.6040     0.9090    -0.5200 o          1 NX6      -0.871800
      4 C1           2.1250     1.1930    -2.0320 c          1 NX6       0.748100
      5 O1           1.8350     0.1990    -2.6690 o          1 NX6      -0.646000
      6 C2           2.6880     2.2170    -4.1130 c3         1 NX6       0.214700
      7 O2           2.5740     2.2920    -2.6680 os         1 NX6      -0.454900
      8 C3           3.2030     3.5300    -4.6440 ca         1 NX6      -0.051300
      9 C4           4.5630     3.7370    -4.7790 ca         1 NX6      -0.101500
     10 C5           5.0340     4.9400    -5.2670 ca         1 NX6      -0.153500
     11 C6           4.1460     5.9390    -5.6200 ca         1 NX6      -0.145000
     12 C7           2.7860     5.7340    -5.4840 ca         1 NX6      -0.153500
     13 C8           2.3140     4.5270    -5.0020 ca         1 NX6      -0.101500
     14 CA           1.5060     0.0000     0.0000 c3         1 NX6       0.043700
     15 CB           2.0160     0.0000     1.4430 c3         1 NX6      -0.178400
     16 CG           3.5180    -0.1240     1.4450 c          1 NX6       0.883600
     17 OD1          4.1880    -0.1450     2.6080 o          1 NX6      -0.877800
     18 OD2          4.1190    -0.2040     0.4000 o          1 NX6      -0.877800
     19 OXT         -0.6720    -1.0070     0.5810 o          1 NX6      -0.871800
     20 HN           2.2550     2.0060    -0.1650 hn         1 NX6       0.305500
     21 H2           1.7150     2.0110    -4.5420 h1         1 NX6       0.047200
     22 H2A          3.3760     1.4250    -4.3810 h1         1 NX6       0.047200
     23 H4           5.2600     2.9520    -4.5080 ha         1 NX6       0.140000
     24 H5           6.1010     5.1010    -5.3730 ha         1 NX6       0.114000
     25 H6           4.5150     6.8690    -6.0370 ha         1 NX6       0.106000
     26 H7           2.0900     6.5170    -5.7580 ha         1 NX6       0.114000
     27 H8           1.2330     4.5960    -5.0260 ha         1 NX6       0.140000
     28 HA           1.8670    -0.8850    -0.5100 h1         1 NX6       0.083700
     29 HB           1.5830    -0.8360     1.9790 hc         1 NX6       0.046200
     30 HBA          1.7300     0.9260     1.9270 hc         1 NX6       0.046200
@<TRIPOS>BOND
     1     3     1 1
     2     1    14 1
     3     1    19 1
     4    14     2 1
     5     2     4 1
     6     2    20 1
     7     5     4 2
     8     4     7 1
     9     7     6 1
    10     6     8 1
    11     6    21 1
    12     6    22 1
    13    13     8 ar
    14     8     9 ar
    15     9    10 ar
    16     9    23 1
    17    11    10 ar
    18    10    24 1
    19    12    11 ar
    20    11    25 1
    21    13    12 ar
    22    12    26 1
    23    13    27 1
    24    15    14 1
    25    14    28 1
    26    16    15 1
    27    15    29 1
    28    15    30 1
    29    18    16 1
    30    16    17 1
@<TRIPOS>SUBSTRUCTURE
     1 NX6         1 TEMP              0 ****  ****    0 ROOT
