@<TRIPOS>MOLECULE
NX6
   30    30     1     0     0
SMALL
bcc


@<TRIPOS>ATOM
      1 C            0.0000     0.0000     0.0000 c          1 NX6       0.982600
      2 N            1.9960     1.1950    -0.6910 ns         1 NX6      -0.033900
      3 O           -0.6040     0.9090    -0.5200 o          1 NX6      -0.921800
      4 C1           2.1250     1.1930    -2.0320 c          1 NX6       0.659100
      5 O1           1.8350     0.1990    -2.6690 o          1 NX6      -0.701000
      6 C2           2.6880     2.2170    -4.1130 c3         1 NX6       0.288700
      7 O2           2.5740     2.2920    -2.6680 os         1 NX6      -0.436900
      8 C3           3.2030     3.5300    -4.6440 ca         1 NX6      -0.059300
      9 C4           4.5630     3.7370    -4.7790 ca         1 NX6      -0.074500
     10 C5           5.0340     4.9400    -5.2670 ca         1 NX6      -0.132000
     11 C6           4.1460     5.9390    -5.6200 ca         1 NX6      -0.123000
     12 C7           2.7860     5.7340    -5.4840 ca         1 NX6      -0.132000
     13 C8           2.3140     4.5270    -5.0020 ca         1 NX6      -0.074500
     14 CA           1.5060     0.0000     0.0000 c3         1 NX6      -0.078300
     15 CB           2.0160     0.0000     1.4430 c3         1 NX6      -0.128400
     16 CG           3.5180    -0.1240     1.4450 c          1 NX6       0.975600
     17 OD1          4.1880    -0.1450     2.6080 o          1 NX6      -0.927800
     18 OD2          4.1190    -0.2040     0.4000 o          1 NX6      -0.927800
     19 OXT         -0.6720    -1.0070     0.5810 o          1 NX6      -0.921800
     20 HN           2.2550     2.0060    -0.1650 hn         1 NX6       0.147500
     21 H2           1.7150     2.0110    -4.5420 h1         1 NX6       0.008700
     22 H2A          3.3760     1.4250    -4.3810 h1         1 NX6       0.008700
     23 H4           5.2600     2.9520    -4.5080 ha         1 NX6       0.112500
     24 H5           6.1010     5.1010    -5.3730 ha         1 NX6       0.090000
     25 H6           4.5150     6.8690    -6.0370 ha         1 NX6       0.084000
     26 H7           2.0900     6.5170    -5.7580 ha         1 NX6       0.090000
     27 H8           1.2330     4.5960    -5.0260 ha         1 NX6       0.112500
     28 HA           1.8670    -0.8850    -0.5100 h1         1 NX6       0.067700
     29 HB           1.5830    -0.8360     1.9790 hc         1 NX6       0.022700
     30 HBA          1.7300     0.9260     1.9270 hc         1 NX6       0.022700
@<TRIPOS>BOND
     1     1     3 1   
     2     1    14 1   
     3     1    19 1   
     4     2     4 1   
     5     2    14 1   
     6     2    20 1   
     7     4     5 2   
     8     4     7 1   
     9     6     7 1   
    10     6     8 1   
    11     6    21 1   
    12     6    22 1   
    13     8     9 ar  
    14     8    13 ar  
    15     9    10 ar  
    16     9    23 1   
    17    10    11 ar  
    18    10    24 1   
    19    11    12 ar  
    20    11    25 1   
    21    12    13 ar  
    22    12    26 1   
    23    13    27 1   
    24    14    15 1   
    25    14    28 1   
    26    15    16 1   
    27    15    29 1   
    28    15    30 1   
    29    16    17 1   
    30    16    18 1   
@<TRIPOS>SUBSTRUCTURE
     1 NX6         1 TEMP              0 ****  ****    0 ROOT
