@<TRIPOS>MOLECULE
molecule
   14    13     1     0     0
SMALL
bcc


@<TRIPOS>ATOM
      1 N            0.0000     0.0000     0.0000 ns         1 NXA      -0.611900
      2 CA           1.4630     0.0000     0.0000 c3         1 NXA       0.027700
      3 C            1.9660     0.0000     1.4200 c          1 NXA       0.887600
      4 OXT          3.2850    -0.0010     1.6670 o          1 NXA      -0.882800
      5 CB           1.9740     1.2480    -0.7220 c3         1 NXA      -0.082100
      6 OD1         -2.0210    -0.5840    -1.0110 o          1 NXA      -0.917300
      7 OD2         -0.0680    -1.1100    -1.9210 o          1 NXA      -0.917300
      8 C1          -0.6750    -0.5830    -1.0110 c          1 NXA       0.995600
      9 O            1.1810    -0.0000     2.3390 o          1 NXA      -0.882800
     10 H           -0.5000     0.4400     0.7470 hn         1 NXA       0.295500
     11 HA           1.8240    -0.8850    -0.5100 h1         1 NXA       0.061700
     12 HBC1         1.4870     1.3330    -1.6850 hc         1 NXA       0.008700
     13 HBC2         3.0450     1.1690    -0.8640 hc         1 NXA       0.008700
     14 HBC3         1.7530     2.1250    -0.1260 hc         1 NXA       0.008700
@<TRIPOS>BOND
     1     1     2 1
     2     1     8 1
     3     1    10 1
     4     2     3 1
     5     2     5 1
     6     2    11 1
     7     3     4 1
     8     3     9 1
     9     5    12 1
    10     5    13 1
    11     5    14 1
    12     6     8 1
    13     7     8 1
@<TRIPOS>SUBSTRUCTURE
     1 NXA         1 TEMP              0 ****  ****    0 ROOT
