@<TRIPOS>MOLECULE
NXG
   51    53     1     0     0
SMALL
bcc


@<TRIPOS>ATOM
      1 C01          0.0000     0.0000     0.0000 ca         1 NXG       0.037000
      2 C1           0.0020    -0.0010     2.4020 ca         1 NXG      -0.130000
      3 N1          -0.7810     1.3640     4.2550 n3         1 NXG      -0.160000
      4 O1           2.0710    -0.0010     3.5730 oh         1 NXG      -0.221000
      5 C02          1.3960     0.0000     0.0000 ca         1 NXG      -0.038000
      6 C2          -0.7470    -0.0000     3.7100 c3         1 NXG      -0.026000
      7 N2          -1.8290     5.1150     5.8700 n3         1 NXG       0.011000
      8 C03         -1.2900     1.3680     5.6320 c3         1 NXG       0.057000
      9 C3          -0.6930    -0.0010     1.2110 ca         1 NXG      -0.057000
     10 C4           2.0840     0.0000     1.1950 ca         1 NXG      -0.181000
     11 C7           1.3900    -0.0000     2.3980 ca         1 NXG       0.148000
     12 C8          -1.1760     2.7780     6.2140 c3         1 NXG      -0.238500
     13 C10         -1.9830     3.7500     5.3500 c3         1 NXG      -0.095000
     14 C11         -2.5930     6.0760     5.0630 c3         1 NXG      -0.412000
     15 C12         -2.1390     7.4970     5.3980 DU         1 NXG      -0.132000
     16 C13         -2.2230     5.1860     7.2850 c3         1 NXG      -0.418000
     17 C14         -3.6590     4.6820     7.4400 c3         1 NXG       0.170000
     18 C15         -1.4650     3.6900     3.9100 c3         1 NXG      -0.238500
     19 C16         -1.5710     2.2540     3.3940 c3         1 NXG       0.057000
     20 C17         -0.7180     0.0050    -1.2390 c1         1 NXG      -0.114000
     21 C18         -1.3010     0.0290    -2.2580 c1         1 NXG      -0.177000
     22 C19         -1.8240    -0.0580    -3.6880 c3         1 NXG       0.297000
     23 O2          -2.8290    -0.7700    -3.5310 oh         1 NXG      -0.284000
     24 I2           4.1790     0.0010     1.1950 i          1 NXG       0.019000
     25 H02          1.9380     0.0010    -0.9380 ha         1 NXG       0.124000
     26 H3          -1.7770    -0.0010     1.2150 ha         1 NXG       0.118000
     27 H21C        -0.6870    -0.9830     4.1610 h1         1 NXG       0.063000
     28 H22C        -1.7850     0.2520     3.5310 h1         1 NXG       0.063000
     29 H031        -0.6440     0.7510     6.2460 h1         1 NXG       0.062000
     30 H032        -2.2910     0.9530     5.6370 h1         1 NXG       0.062000
     31 H161        -1.1040     2.3020     2.4180 h1         1 NXG       0.062000
     32 H162        -2.5700     1.8470     3.2920 h1         1 NXG       0.062000
     33 H1           2.8020    -0.5930     3.5130 ho         1 NXG       0.207000
     34 H10         -3.0280     3.4660     5.3690 h1         1 NXG       0.073000
     35 H111        -2.5740     7.0470     5.5430 DU         1 NXG       0.291000
     36 H112        -2.1490     6.1520     4.0770 h1         1 NXG       0.089000
     37 H131        -3.1560     4.6540     7.4270 h1         1 NXG       0.053000
     38 H132        -1.4520     4.7350     7.8970 h1         1 NXG       0.053000
     39 H81C        -0.1280     3.0250     6.3320 hc         1 NXG       0.065500
     40 H82C        -1.6580     2.7970     7.1840 hc         1 NXG       0.065500
     41 H151        -1.4500     2.6570     3.5860 hc         1 NXG       0.065500
     42 H152        -0.4570     4.0870     3.8840 hc         1 NXG       0.065500
     43 H121        -2.1530     8.1030     4.5000 ha         1 NXG       0.072000
     44 H122        -1.1330     7.4700     5.7990 ha         1 NXG       0.072000
     45 H123        -2.8090     7.9270     6.1330 ha         1 NXG       0.072000
     46 H141        -3.6590     3.6000     7.4890 hc         1 NXG       0.028000
     47 H142        -4.2490     5.0050     6.5900 hc         1 NXG       0.028000
     48 H143        -4.0870     5.0850     8.3500 hc         1 NXG       0.028000
     49 H191        -2.0960     0.9220    -4.0620 h1         1 NXG      -0.001000
     50 H192        -1.1030    -0.5400    -4.3370 h1         1 NXG      -0.001000
     51 H2          -3.2620    -0.8890    -4.3590 ho         1 NXG       0.186000
@<TRIPOS>BOND
     1     1     5 1   
     2     1     9 1   
     3     1    20 1   
     4     2     6 1   
     5     2     9 1   
     6     2    11 1   
     7     3     6 1   
     8     3     8 1   
     9     3    19 1   
    10     4    11 1   
    11     4    33 1   
    12     5    10 1   
    13     5    25 1   
    14     6    27 1   
    15     6    28 1   
    16     7    13 1   
    17     7    14 1   
    18     7    16 1   
    19     8    12 1   
    20     8    29 1   
    21     8    30 1   
    22     9    26 1   
    23    10    11 1   
    24    10    24 1   
    25    12    13 1   
    26    12    39 1   
    27    12    40 1   
    28    13    18 1   
    29    13    34 1   
    30    14    15 1   
    31    14    35 1   
    32    14    36 1   
    33    15    35 1   
    34    15    43 1   
    35    15    44 1   
    36    15    45 1   
    37    16    17 1   
    38    16    37 1   
    39    16    38 1   
    40    17    46 1   
    41    17    47 1   
    42    17    48 1   
    43    18    19 1   
    44    18    41 1   
    45    18    42 1   
    46    19    31 1   
    47    19    32 1   
    48    20    21 1   
    49    21    22 1   
    50    22    23 1   
    51    22    49 1   
    52    22    50 1   
    53    23    51 1   
@<TRIPOS>SUBSTRUCTURE
     1 NXG         1 TEMP              0 ****  ****    0 ROOT
