@<TRIPOS>MOLECULE
molecule
   51    52     1     0     0
SMALL
bcc


@<TRIPOS>ATOM
      1 C01          0.0000     0.0000     0.0000 ca         1 NXG       0.004000
      2 C1           0.0020    -0.0010     2.4020 ca         1 NXG      -0.119300
      3 N1          -0.7810     1.3640     4.2550 n3         1 NXG      -0.801600
      4 O1           2.0710    -0.0010     3.5730 oh         1 NXG      -0.483100
      5 C02          1.3960     0.0000     0.0000 ca         1 NXG      -0.047000
      6 C2          -0.7470    -0.0000     3.7100 c3         1 NXG       0.203100
      7 N2          -1.8290     5.1150     5.8700 n3         1 NXG      -0.670600
      8 C03         -1.2900     1.3680     5.6320 c3         1 NXG       0.199300
      9 C3          -0.6930    -0.0010     1.2110 ca         1 NXG      -0.072000
     10 C4           2.0840     0.0000     1.1950 ca         1 NXG      -0.026100
     11 C7           1.3900    -0.0000     2.3980 ca         1 NXG       0.185100
     12 C8          -1.1760     2.7780     6.2140 c3         1 NXG      -0.231400
     13 C10         -1.9830     3.7500     5.3500 c3         1 NXG       0.169500
     14 C11         -2.5930     6.0760     5.0630 c3         1 NXG      -0.177200
     15 C12         -2.1390     7.4970     5.3980 c3         1 NXG      -0.078100
     16 C13         -2.2230     5.1860     7.2850 c3         1 NXG      -0.177200
     17 C14         -3.6590     4.6820     7.4400 c3         1 NXG      -0.078100
     18 C15         -1.4650     3.6900     3.9100 c3         1 NXG      -0.231400
     19 C16         -1.5710     2.2540     3.3940 c3         1 NXG       0.199300
     20 C17         -0.7180     0.0050    -1.2390 cg         1 NXG      -0.112000
     21 C18         -1.3010     0.0290    -2.2580 c1         1 NXG      -0.115100
     22 C19         -1.8240    -0.0580    -3.6880 c3         1 NXG       0.287500
     23 O2          -2.8290    -0.7700    -3.5310 oh         1 NXG      -0.566800
     24 I2           4.1790     0.0010     1.1950 i          1 NXG      -0.156900
     25 H02          1.9380     0.0010    -0.9380 ha         1 NXG       0.152000
     26 H3          -1.7770    -0.0010     1.2150 ha         1 NXG       0.147000
     27 H21C        -0.6870    -0.9830     4.1610 h1         1 NXG       0.052200
     28 H22C        -1.7850     0.2520     3.5310 h1         1 NXG       0.052200
     29 H031        -0.6440     0.7510     6.2460 h1         1 NXG       0.058450
     30 H032        -2.2910     0.9530     5.6370 h1         1 NXG       0.058450
     31 H161        -1.1040     2.3020     2.4180 h1         1 NXG       0.058450
     32 H162        -2.5700     1.8470     3.2920 h1         1 NXG       0.058450
     33 H1           2.8020    -0.5930     3.5130 ho         1 NXG       0.427000
     34 H10         -3.0280     3.4660     5.3690 h1         1 NXG       0.030700
     35 H111        -2.5740     7.0470     5.5430 h1         1 NXG       0.152450
     36 H112        -2.1490     6.1520     4.0770 h1         1 NXG       0.152450
     37 H131        -3.1560     4.6540     7.4270 h1         1 NXG       0.152450
     38 H132        -1.4520     4.7350     7.8970 h1         1 NXG       0.152450
     39 H81C        -0.1280     3.0250     6.3320 hc         1 NXG       0.100450
     40 H82C        -1.6580     2.7970     7.1840 hc         1 NXG       0.100450
     41 H151        -1.4500     2.6570     3.5860 hc         1 NXG       0.100450
     42 H152        -0.4570     4.0870     3.8840 hc         1 NXG       0.100450
     43 H121        -2.1530     8.1030     4.5000 hc         1 NXG       0.061367
     44 H122        -1.1330     7.4700     5.7990 hc         1 NXG       0.061367
     45 H123        -2.8090     7.9270     6.1330 hc         1 NXG       0.061367
     46 H141        -3.6590     3.6000     7.4890 hc         1 NXG       0.061367
     47 H142        -4.2490     5.0050     6.5900 hc         1 NXG       0.061367
     48 H143        -4.0870     5.0850     8.3500 hc         1 NXG       0.061367
     49 H191        -2.0960     0.9220    -4.0620 h1         1 NXG       0.003700
     50 H192        -1.1030    -0.5400    -4.3370 h1         1 NXG       0.003700
     51 H2          -3.2620    -0.8890    -4.3590 ho         1 NXG       0.414000
@<TRIPOS>BOND
     1     1     5 ar
     2     1     9 ar
     3     1    20 1
     4     2     6 1
     5     2     9 ar
     6     2    11 ar
     7     3     6 1
     8     3     8 1
     9     3    19 1
    10     4    11 1
    11     5    10 ar
    12     7    13 1
    13     7    14 1
    14     7    16 1
    15     8    12 1
    16    10    11 ar
    17    10    24 1
    18    12    13 1
    19    13    18 1
    20    14    15 1
    21    16    17 1
    22    18    19 1
    23    20    21 3
    24    21    22 1
    25    22    23 1
    26     5    25 1
    27     9    26 1
    28     6    27 1
    29     6    28 1
    30     8    29 1
    31     8    30 1
    32    19    31 1
    33    19    32 1
    34     4    33 1
    35    13    34 1
    36    14    35 1
    37    14    36 1
    38    16    37 1
    39    16    38 1
    40    12    39 1
    41    12    40 1
    42    18    41 1
    43    18    42 1
    44    15    43 1
    45    15    44 1
    46    15    45 1
    47    17    46 1
    48    17    47 1
    49    17    48 1
    50    22    49 1
    51    22    50 1
    52    23    51 1
@<TRIPOS>SUBSTRUCTURE
     1 NXG         1 TEMP              0 ****  ****    0 ROOT
