@<TRIPOS>MOLECULE
NXL
   30    30     1     0     0
SMALL
bcc


@<TRIPOS>ATOM
      1 OAC          0.0000     0.0000     0.0000 o          1 NXL      -0.555100
      2 CAN          1.2130     0.0000     0.0000 c          1 NXL       0.604900
      3 N            1.8870     0.0000     1.1670 n          1 NXL      -0.193800
      4 CAJ          1.1710     0.1120     2.4450 c3         1 NXL       0.059000
      5 CA           3.3510    -0.1170     1.1860 c3         1 NXL      -0.013300
      6 C            3.8550    -0.3870    -0.2080 c          1 NXL       0.293100
      7 O            3.3020    -1.2120    -0.9040 o          1 NXL      -0.378100
      8 NAA          4.9200     0.2890    -0.6830 nz         1 NXL       0.194600
      9 CB           3.7410    -1.2780     2.1070 c3         1 NXL      -0.029400
     10 CAH          3.1100    -1.0660     3.4840 c3         1 NXL      -0.029400
     11 CAO          1.5900    -1.0530     3.3490 c3         1 NXL       0.095500
     12 NAK          0.9830    -0.8860     4.6760 n7         1 NXL      -0.289700
     13 OAL         -0.3250    -1.5380     4.7410 os         1 NXL      -0.379000
     14 SAR         -1.0170    -1.4070     6.0900 s6         1 NXL       1.320300
     15 OAD         -1.5420     0.0180     6.1900 o          1 NXL      -0.664200
     16 OAE          0.0000    -1.5310     7.0750 o          1 NXL      -0.664200
     17 OAG         -2.1570    -2.2530     6.0390 o          1 NXL      -0.664200
     18 H1           1.7540     0.0490    -0.9370 h5         1 NXL      -0.049800
     19 H2           1.4260     1.0510     2.9220 h1         1 NXL       0.066700
     20 H3           0.1030     0.0670     2.2670 h1         1 NXL       0.066700
     21 H4           3.7830     0.8030     1.5620 h1         1 NXL       0.034700
     22 H5           5.1270    -0.0240    -1.6100 hn         1 NXL       0.246467
     23 H6           5.7100     0.1250    -0.0910 hn         1 NXL       0.246467
     24 H7           3.3800    -2.2080     1.6850 hc         1 NXL       0.025200
     25 H8           4.8190    -1.3130     2.2060 hc         1 NXL       0.025200
     26 H9           3.4440    -0.1180     3.8910 hc         1 NXL       0.037700
     27 H10          3.4060    -1.8720     4.1440 hc         1 NXL       0.037700
     28 H11          1.2590    -1.9860     2.9090 h1         1 NXL       0.038700
     29 H12          1.5860    -1.2790     5.3710 hn         1 NXL       0.272800
     30 HAA3         4.7200     1.2700    -0.6830 hn         1 NXL       0.246467
@<TRIPOS>BOND
     1     1     2 2   
     2     2     3 1   
     3     2    18 1   
     4     3     4 1   
     5     3     5 1   
     6     4    11 1   
     7     4    19 1   
     8     4    20 1   
     9     5     6 1   
    10     5     9 1   
    11     5    21 1   
    12     6     7 2   
    13     6     8 1   
    14     8    22 1   
    15     8    23 1   
    16     8    30 1   
    17     9    10 1   
    18     9    24 1   
    19     9    25 1   
    20    10    11 1   
    21    10    26 1   
    22    10    27 1   
    23    11    12 1   
    24    11    28 1   
    25    12    13 1   
    26    12    29 1   
    27    13    14 1   
    28    14    15 1   
    29    14    16 1   
    30    14    17 1   
@<TRIPOS>SUBSTRUCTURE
     1 NXL         1 TEMP              0 ****  ****    0 ROOT
