@<TRIPOS>MOLECULE
molecule
   27    27     1     0     0
SMALL
bcc


@<TRIPOS>ATOM
      1 O17          0.0000     0.0000     0.0000 o          1 NXN      -0.561100
      2 C12          1.2120     0.0000     0.0000 c          1 NXN       0.653100
      3 N1           1.8860     0.0000     1.1670 ns         1 NXN      -0.591900
      4 C14          1.1550    -0.0000     2.4350 c3         1 NXN       0.132000
      5 C15          2.1490     0.0000     3.5980 c3         1 NXN       0.013700
      6 S19          1.2430     0.0010     5.1700 sh         1 NXN      -0.397900
      7 C9           1.9640    -0.0010    -1.3060 c3         1 NXN       0.039400
      8 O18          1.0360    -0.0000    -2.3910 os         1 NXN      -0.241900
      9 C10          1.7690    -0.0010    -3.5350 ca         1 NXN       0.125100
     10 C6           3.1540    -0.0010    -3.4730 ca         1 NXN      -0.215000
     11 C5           3.8980    -0.0010    -4.6370 ca         1 NXN      -0.082000
     12 C8           1.1330    -0.0060    -4.7680 ca         1 NXN       0.008400
     13 Cl4         -0.6020    -0.0050    -4.8510 cl         1 NXN      -0.070400
     14 C11          1.8810    -0.0020    -5.9320 ca         1 NXN      -0.082000
     15 C16          3.2610    -0.0020    -5.8660 ca         1 NXN       0.000400
     16 Cl3          4.1980    -0.0010    -7.3280 cl         1 NXN      -0.098400
     17 H1           2.8870     0.0000     1.1660 hn         1 NXN       0.309500
     18 H141         0.5320    -0.8850     2.4930 h1         1 NXN       0.071700
     19 H142         0.5320     0.8840     2.4930 h1         1 NXN       0.071700
     20 H151         2.7720    -0.8850     3.5400 h1         1 NXN       0.058700
     21 H152         2.7720     0.8840     3.5400 h1         1 NXN       0.058700
     22 H19          2.1060     0.0010     6.1780 hs         1 NXN       0.221800
     23 H91          2.5860    -0.8860    -1.3640 h1         1 NXN       0.059700
     24 H92          2.5880     0.8830    -1.3640 h1         1 NXN       0.059700
     25 H6           3.6520     0.0000    -2.5110 ha         1 NXN       0.146000
     26 H5           4.9800    -0.0000    -4.5870 ha         1 NXN       0.148000
     27 H11          1.3850    -0.0040    -6.8950 ha         1 NXN       0.163000
@<TRIPOS>BOND
     1     1     2 2
     2     2     3 1
     3     2     7 1
     4     3     4 1
     5     3    17 1
     6     4     5 1
     7     4    18 1
     8     4    19 1
     9     5     6 1
    10     5    20 1
    11     5    21 1
    12     6    22 1
    13     7     8 1
    14     7    23 1
    15     7    24 1
    16     8     9 1
    17     9    10 ar
    18     9    12 ar
    19    10    11 ar
    20    10    25 1
    21    11    15 ar
    22    11    26 1
    23    12    13 1
    24    12    14 ar
    25    14    15 ar
    26    14    27 1
    27    15    16 1
@<TRIPOS>SUBSTRUCTURE
     1 NXN         1 TEMP              0 ****  ****    0 ROOT
