@<TRIPOS>MOLECULE
molecule
   44    46     1     0     0
SMALL
bcc


@<TRIPOS>ATOM
      1 NAB          0.0000     0.0000     0.0000 ns         1 NXP      -0.484100
      2 CAP          1.3970     0.0000     0.0000 ca         1 NXP       0.117600
      3 CAU          2.0910     0.0000     1.2050 ca         1 NXP      -0.156500
      4 CAT          3.4690     0.0010     1.2080 ca         1 NXP      -0.061000
      5 CAS          4.1690     0.0020    -0.0010 ca         1 NXP      -0.199900
      6 CAR          3.4680     0.0020    -1.2100 ca         1 NXP      -0.061000
      7 CAQ          2.0900    -0.0040    -1.2050 ca         1 NXP      -0.156500
      8 CAV          5.6430     0.0030    -0.0010 ce         1 NXP       0.495900
      9 CAW          6.3960     0.0040    -1.3070 c3         1 NXP      -0.197400
     10 NAC          6.2920     0.0030     1.1220 n2         1 NXP      -0.424400
     11 NAD          7.6930     0.0050     1.1220 nu         1 NXP      -0.508300
     12 CAX          8.3820     0.0050     2.3140 c2         1 NXP       0.831100
     13 NAF          7.7300     0.0040     3.4430 n2         1 NXP      -0.988100
     14 NAE          9.7570     0.0060     2.3130 nz         1 NXP      -0.818600
     15 OAY         -0.0690     1.2090    -1.8630 o          1 NXP      -0.593100
     16 CAO         -0.6750     0.6720    -0.9540 c          1 NXP       0.712300
     17 CAN         -2.1400     0.7570    -0.8960 cc         1 NXP      -0.236400
     18 CAM         -2.9520     0.2110     0.0530 cd         1 NXP      -0.058100
     19 NAA         -4.2450     0.5000    -0.2290 na         1 NXP      -0.157400
     20 CAJ         -4.3300     1.2520    -1.3820 ca         1 NXP      -0.041200
     21 CAI         -5.3980     1.7950    -2.0880 ca         1 NXP      -0.141000
     22 CAH         -5.1660     2.5180    -3.2380 ca         1 NXP      -0.110000
     23 CAG         -3.8740     2.7100    -3.7040 ca         1 NXP      -0.159000
     24 CAL         -2.8020     2.1800    -3.0180 ca         1 NXP      -0.070000
     25 CAK         -3.0220     1.4520    -1.8510 ca         1 NXP      -0.041800
     26 HAU          1.5470     0.0010     2.1420 ha         1 NXP       0.165000
     27 HAQ          1.5460    -0.0390    -2.1420 ha         1 NXP       0.165000
     28 HAT          4.0080    -0.0490     2.1470 ha         1 NXP       0.145500
     29 HAR          4.0060    -0.0590    -2.1490 ha         1 NXP       0.145500
     30 HAW1         6.9300    -0.9320    -1.4160 hc         1 NXP       0.067700
     31 HAW2         7.1020     0.8260    -1.3160 hc         1 NXP       0.067700
     32 HAW3         5.6980     0.1190    -2.1270 hc         1 NXP       0.067700
     33 HAF          7.4790     0.8700     3.8780 hn         1 NXP       0.528400
     34 HAE1        10.0920    -0.8760     2.6480 hn         1 NXP       0.462133
     35 HAE2        10.0910     0.1580     1.3820 hn         1 NXP       0.462133
     36 HAM         -2.6140    -0.3670     0.9050 h4         1 NXP       0.160000
     37 HAA         -5.0280     0.2100     0.3220 hn         1 NXP       0.305700
     38 HAI         -6.4420     1.7030    -1.8130 ha         1 NXP       0.134000
     39 HAH         -5.9910     2.9470    -3.7950 ha         1 NXP       0.137000
     40 HAG         -3.7530     3.2860    -4.6130 ha         1 NXP       0.136000
     41 HAL         -1.8910     2.4490    -3.5390 ha         1 NXP       0.152000
     42 HAD          8.1930    -0.0440     0.2560 hn         1 NXP       0.411800
     43 HAB         -0.5000    -0.5190     0.6950 hn         1 NXP       0.328500
     44 HAE3        10.0910     0.7680     2.8700 hn         1 NXP       0.462133
@<TRIPOS>BOND
     1     1     2 1
     2     1    16 1
     3     2     3 ar
     4     2     7 ar
     5     3     4 ar
     6     4     5 ar
     7     5     6 ar
     8     5     8 1
     9     6     7 ar
    10     8     9 1
    11     8    10 2
    12    10    11 1
    13    11    12 1
    14    12    13 2
    15    12    14 1
    16    15    16 2
    17    16    17 1
    18    17    18 2
    19    17    25 1
    20    18    19 1
    21    19    20 1
    22    20    21 ar
    23    20    25 ar
    24    21    22 ar
    25    22    23 ar
    26    23    24 ar
    27    24    25 ar
    28     3    26 1
    29     7    27 1
    30     4    28 1
    31     6    29 1
    32     9    30 1
    33     9    31 1
    34     9    32 1
    35    13    33 1
    36    14    34 1
    37    14    35 1
    38    18    36 1
    39    19    37 1
    40    21    38 1
    41    22    39 1
    42    23    40 1
    43    24    41 1
    44    11    42 1
    45     1    43 1
    46    44    14 1
@<TRIPOS>SUBSTRUCTURE
     1 NXP         1 TEMP              0 ****  ****    0 ROOT
