@<TRIPOS>MOLECULE
NXP
   44    46     1     0     0
SMALL
bcc


@<TRIPOS>ATOM
      1 NAB          0.0000     0.0000     0.0000 ns         1 NXP      -0.049100
      2 CAP          1.3970     0.0000     0.0000 ca         1 NXP      -0.029400
      3 CAU          2.0910     0.0000     1.2050 ca         1 NXP      -0.134000
      4 CAT          3.4690     0.0010     1.2080 ca         1 NXP      -0.033500
      5 CAS          4.1690     0.0020    -0.0010 ca         1 NXP      -0.212900
      6 CAR          3.4680     0.0020    -1.2100 ca         1 NXP      -0.033500
      7 CAQ          2.0900    -0.0040    -1.2050 ca         1 NXP      -0.134000
      8 CAV          5.6430     0.0030    -0.0010 ce         1 NXP       0.496900
      9 CAW          6.3960     0.0040    -1.3070 c3         1 NXP      -0.085400
     10 NAC          6.2920     0.0030     1.1220 n2         1 NXP      -0.516400
     11 NAD          7.6930     0.0050     1.1220 nu         1 NXP      -0.130300
     12 CAX          8.3820     0.0050     2.3140 c2         1 NXP       0.250100
     13 NAF          7.7300     0.0040     3.4430 n2         1 NXP      -0.542100
     14 NAE          9.7570     0.0060     2.3130 nz         1 NXP       0.122400
     15 OAY         -0.0690     1.2090    -1.8630 o          1 NXP      -0.639100
     16 CAO         -0.6750     0.6720    -0.9540 c          1 NXP       0.634300
     17 CAN         -2.1400     0.7570    -0.8960 cc         1 NXP      -0.245400
     18 CAM         -2.9520     0.2110     0.0530 cd         1 NXP      -0.239100
     19 NAA         -4.2450     0.5000    -0.2290 na         1 NXP       0.398600
     20 CAJ         -4.3300     1.2520    -1.3820 ca         1 NXP      -0.238200
     21 CAI         -5.3980     1.7950    -2.0880 ca         1 NXP      -0.098000
     22 CAH         -5.1660     2.5180    -3.2380 ca         1 NXP      -0.089000
     23 CAG         -3.8740     2.7100    -3.7040 ca         1 NXP      -0.135000
     24 CAL         -2.8020     2.1800    -3.0180 ca         1 NXP      -0.039000
     25 CAK         -3.0220     1.4520    -1.8510 ca         1 NXP      -0.023800
     26 HAU          1.5470    -0.0000     2.1420 ha         1 NXP       0.136500
     27 HAQ          1.5460    -0.0420    -2.1410 ha         1 NXP       0.136500
     28 HAT          4.0080    -0.0480     2.1470 ha         1 NXP       0.115500
     29 HAR          4.0060    -0.0550    -2.1490 ha         1 NXP       0.115500
     30 HAW1         5.7530     0.3760    -2.0950 hc         1 NXP       0.029033
     31 HAW2         7.2670     0.6420    -1.2200 hc         1 NXP       0.029033
     32 HAW3         6.7100    -1.0050    -1.5430 hc         1 NXP       0.029033
     33 HAF          8.2300     0.0040     4.3100 hn         1 NXP       0.336400
     34 HAE1        10.0920    -0.2050     3.2330 hn         1 NXP       0.225133
     35 HAE2        10.0900     0.9090     2.0370 hn         1 NXP       0.225133
     36 HAM         -2.6140    -0.3670     0.9050 h4         1 NXP       0.134000
     37 HAA         -5.0280     0.2100     0.3220 hn         1 NXP       0.116700
     38 HAI         -6.4440     1.7090    -1.8200 ha         1 NXP       0.106000
     39 HAH         -5.9750     2.9560    -3.8110 ha         1 NXP       0.106000
     40 HAG         -3.7220     3.2820    -4.6110 ha         1 NXP       0.108000
     41 HAL         -1.8860     2.4440    -3.5320 ha         1 NXP       0.122000
     42 HAD          8.1930    -0.0490     0.2560 hn         1 NXP       0.274800
     43 HAB         -0.5000    -0.5190     0.6940 hn         1 NXP       0.173500
     44 HAE3        10.0910    -0.7180     1.7080 hn         1 NXP       0.225133
@<TRIPOS>BOND
     1     1     2 1   
     2     1    16 1   
     3     1    43 1   
     4     2     3 ar  
     5     2     7 ar  
     6     3     4 ar  
     7     3    26 1   
     8     4     5 ar  
     9     4    28 1   
    10     5     6 ar  
    11     5     8 1   
    12     6     7 ar  
    13     6    29 1   
    14     7    27 1   
    15     8     9 1   
    16     8    10 2   
    17     9    30 1   
    18     9    31 1   
    19     9    32 1   
    20    10    11 1   
    21    11    12 1   
    22    11    42 1   
    23    12    13 2   
    24    12    14 1   
    25    13    33 1   
    26    14    34 1   
    27    14    35 1   
    28    14    44 1   
    29    15    16 2   
    30    16    17 1   
    31    17    18 2   
    32    17    25 1   
    33    18    19 1   
    34    18    36 1   
    35    19    20 1   
    36    19    37 1   
    37    20    21 ar  
    38    20    25 ar  
    39    21    22 ar  
    40    21    38 1   
    41    22    23 ar  
    42    22    39 1   
    43    23    24 ar  
    44    23    40 1   
    45    24    25 ar  
    46    24    41 1   
@<TRIPOS>SUBSTRUCTURE
     1 NXP         1 TEMP              0 ****  ****    0 ROOT
