@<TRIPOS>MOLECULE
molecule
   48    50     1     0     0
SMALL
bcc


@<TRIPOS>ATOM
      1 O2           0.0000     0.0000     0.0000 o          1 NXU      -0.633100
      2 C11          1.2170     0.0000     0.0000 c          1 NXU       0.684700
      3 N1           1.8910     0.0000     1.1670 ns         1 NXU      -0.539900
      4 C12          1.1590    -0.0010     2.4360 c3         1 NXU       0.131700
      5 C13          2.0350    -0.6090     3.5310 c3         1 NXU       0.303600
      6 S1           1.0940    -0.8090     5.1020 ss         1 NXU      -0.541200
      7 C15          2.0980    -2.2250     5.7050 c3         1 NXU       0.090100
      8 C19          1.1960    -3.3060     6.3050 c3         1 NXU      -0.074600
      9 C20          3.1290    -1.7550     6.7320 c3         1 NXU      -0.074600
     10 C16          2.7950    -2.7400     4.4320 c3         1 NXU       0.045500
     11 C21          4.2840    -2.5780     4.5940 c          1 NXU       0.905600
     12 O5           4.9830    -3.4720     5.3090 o          1 NXU      -0.838300
     13 O4           4.8490    -1.6410     4.0790 o          1 NXU      -0.838300
     14 N2           2.3720    -2.0270     3.2230 n7         1 NXU      -0.761200
     15 C14          0.7930     1.4370     2.8150 c3         1 NXU       0.119400
     16 O3           1.9880     2.1800     3.0680 oh         1 NXU      -0.602800
     17 C1           1.9520    -0.0060    -1.2730 ca         1 NXU      -0.144600
     18 C2           2.3030    -1.2080    -1.8880 ca         1 NXU       0.155100
     19 C3           3.0020    -1.2050    -3.0970 ca         1 NXU      -0.182000
     20 O1           1.9660    -2.3860    -1.3080 oh         1 NXU      -0.487100
     21 C9           2.3240     1.2480    -1.9260 ca         1 NXU       0.011000
     22 C8           1.9970     2.4890    -1.3660 ca         1 NXU      -0.106000
     23 C7           2.3640     3.6350    -2.0060 ca         1 NXU      -0.124000
     24 C6           3.0600     3.5890    -3.2120 ca         1 NXU      -0.136000
     25 C5           3.3930     2.3990    -3.7840 ca         1 NXU      -0.114000
     26 C10          3.0320     1.1980    -3.1520 ca         1 NXU      -0.057000
     27 C4           3.3600    -0.0490    -3.7130 ca         1 NXU      -0.087000
     28 H1           2.8910    -0.0020     1.1670 hn         1 NXU       0.347500
     29 H2           0.2540    -0.5870     2.3310 h1         1 NXU       0.087700
     30 H3           2.9340    -0.0250     3.6910 h2         1 NXU       0.137700
     31 H4           0.4780    -3.6310     5.5630 hc         1 NXU       0.043367
     32 H5           1.8010    -4.1490     6.6150 hc         1 NXU       0.043367
     33 H6           0.6720    -2.9030     7.1630 hc         1 NXU       0.043367
     34 H7           3.7880    -1.0270     6.2740 hc         1 NXU       0.043367
     35 H8           3.7100    -2.6030     7.0740 hc         1 NXU       0.043367
     36 H9           2.6200    -1.3030     7.5740 hc         1 NXU       0.043367
     37 H10          2.5650    -3.7920     4.3120 h1         1 NXU       0.063700
     38 H12          1.5730    -2.4820     2.8300 hn         1 NXU       0.335800
     39 H14          0.1770     1.4300     3.7060 h1         1 NXU       0.032700
     40 H15          0.2470     1.8970     2.0010 h1         1 NXU       0.032700
     41 H16          1.7650     3.0130     3.4480 ho         1 NXU       0.393000
     42 H17          3.2640    -2.1500    -3.5570 ha         1 NXU       0.131000
     43 H18          1.5740    -2.9530    -1.9510 ho         1 NXU       0.419000
     44 H19          1.4560     2.5380    -0.4290 ha         1 NXU       0.150000
     45 H20          2.1100     4.5950    -1.5720 ha         1 NXU       0.127000
     46 H21          3.3400     4.5130    -3.7020 ha         1 NXU       0.121000
     47 H22          3.9350     2.3790    -4.7220 ha         1 NXU       0.125000
     48 H23          3.9010    -0.0880    -4.6500 ha         1 NXU       0.127000
@<TRIPOS>BOND
     1    20    18 1
     2    16    15 1
     3    15     4 1
     4    18    19 ar
     5    18    17 ar
     6     4     3 1
     7     4     5 1
     8    19    27 ar
     9     3     2 1
    10     2     1 2
    11     2    17 1
    12    14     5 1
    13    14    10 1
    14    17    21 ar
    15     5     6 1
    16    27    26 ar
    17    13    11 1
    18    11    10 1
    19    11    12 1
    20    10     7 1
    21    21    26 ar
    22    21    22 ar
    23    26    25 ar
    24     6     7 1
    25     7     9 1
    26     7     8 1
    27    22    23 ar
    28    25    24 ar
    29    23    24 ar
    30     3    28 1
    31     4    29 1
    32     5    30 1
    33     8    31 1
    34     8    32 1
    35     8    33 1
    36     9    34 1
    37     9    35 1
    38     9    36 1
    39    10    37 1
    40    14    38 1
    41    15    39 1
    42    15    40 1
    43    16    41 1
    44    19    42 1
    45    20    43 1
    46    22    44 1
    47    23    45 1
    48    24    46 1
    49    25    47 1
    50    27    48 1
@<TRIPOS>SUBSTRUCTURE
     1 NXU         1 TEMP              0 ****  ****    0 ROOT
