@<TRIPOS>MOLECULE
molecule
   37    38     1     0     0
SMALL
bcc


@<TRIPOS>ATOM
      1 C1           0.0000     0.0000     0.0000 ca         1 NXV      -0.002000
      2 C2           1.4000     0.0000     0.0000 ca         1 NXV      -0.143000
      3 C3           2.0900     0.0000     1.1760 ca         1 NXV      -0.090000
      4 C4           1.4020    -0.0000     2.3950 ca         1 NXV      -0.088600
      5 C5          -0.0040    -0.0000     2.4050 ca         1 NXV       0.042900
      6 C6          -0.6990     0.0060     1.2040 ca         1 NXV      -0.126000
      7 C7          -0.7140     0.0000    -1.2410 cg         1 NXV      -0.091000
      8 C8          -1.3020    -0.0190    -2.2570 c1         1 NXV      -0.203100
      9 C9          -2.4280     0.1860    -3.6120 c3         1 NXV       0.063700
     10 S10         -0.8780    -0.0010     3.9350 ss         1 NXV      -0.091000
     11 C11         -2.6150    -0.0000     3.4120 c3         1 NXV      -0.268000
     12 C12         -3.5060    -0.0010     4.6280 ca         1 NXV      -0.080300
     13 C13         -3.9140     1.1960     5.1860 ca         1 NXV      -0.189000
     14 C14         -4.7310     1.1970     6.3010 ca         1 NXV      -0.094000
     15 C15         -5.1420    -0.0010     6.8580 ca         1 NXV       0.017400
     16 C16         -4.7330    -1.1990     6.3000 ca         1 NXV       0.045400
     17 C17         -3.9190    -1.1990     5.1810 ca         1 NXV      -0.109000
     18 Cl18        -5.2470    -2.7030     6.9990 cl         1 NXV      -0.093400
     19 Cl19        -6.1670    -0.0000     8.2590 cl         1 NXV      -0.100400
     20 C20          2.1490    -0.0020     3.6620 c          1 NXV       0.879200
     21 O21          1.5510    -0.0030     4.7210 o          1 NXV      -0.815300
     22 O22          3.4970    -0.0030     3.6500 o          1 NXV      -0.815300
     23 C23         -2.0590    -1.1420    -4.4280 c3         1 NXV       0.115400
     24 O24         -0.8830    -0.4920    -5.0850 oh         1 NXV      -0.610800
     25 H2           1.9420     0.0020    -0.9380 ha         1 NXV       0.116000
     26 H3           3.1730    -0.0000     1.1680 ha         1 NXV       0.158000
     27 H6          -1.7800    -0.0550     1.2030 ha         1 NXV       0.142000
     28 H9          -2.2030     1.0790    -4.1830 hc         1 NXV       0.063700
     29 H9A         -3.4590     0.1720    -3.2770 hc         1 NXV       0.063700
     30 H11         -3.2010     0.5910     4.1050 h1         1 NXV       0.175200
     31 H11A        -2.9890    -1.0170     3.3990 h1         1 NXV       0.175200
     32 H13         -3.5600     2.1330     4.7740 ha         1 NXV       0.168000
     33 H14         -5.0730     2.1350     6.7210 ha         1 NXV       0.148000
     34 H17         -3.5680    -2.1360     4.7670 ha         1 NXV       0.170000
     35 H23         -1.7690    -1.9590    -3.7780 h1         1 NXV       0.046200
     36 H23A        -2.8280    -1.4170    -5.1390 h1         1 NXV       0.046200
     37 HO24        -0.5630    -1.0470    -5.7770 ho         1 NXV       0.376000
@<TRIPOS>BOND
     1     6     1 ar
     2     1     2 ar
     3     1     7 1
     4     3     2 ar
     5     2    25 1
     6     4     3 ar
     7     3    26 1
     8    20     4 1
     9     5     4 ar
    10    10     5 1
    11     5     6 ar
    12     6    27 1
    13     7     8 3
    14     8     9 1
    15     9    23 1
    16     9    28 1
    17     9    29 1
    18    10    11 1
    19    12    11 1
    20    11    30 1
    21    11    31 1
    22    13    12 ar
    23    17    12 ar
    24    14    13 ar
    25    13    32 1
    26    15    14 ar
    27    14    33 1
    28    19    15 1
    29    15    16 ar
    30    18    16 1
    31    16    17 ar
    32    17    34 1
    33    21    20 1
    34    22    20 1
    35    23    24 1
    36    23    35 1
    37    23    36 1
    38    24    37 1
@<TRIPOS>SUBSTRUCTURE
     1 NXV         1 TEMP              0 ****  ****    0 ROOT
