@<TRIPOS>MOLECULE
NXV
   37    39     1     0     0
SMALL
bcc


@<TRIPOS>ATOM
      1 C1          0.5820   -0.1430   -0.0660 ca        1 NXV      0.021000
      2 C2          1.9490   -0.3370    0.1940 ca        1 NXV     -0.169000
      3 C3          2.3960   -0.4310    1.5120 ca        1 NXV     -0.068000
      4 C4          1.4920   -0.3340    2.5590 ca        1 NXV     -0.173600
      5 C5          0.1070   -0.1390    2.3170 ca        1 NXV      0.183500
      6 C6         -0.3330   -0.0450    0.9930 ca        1 NXV     -0.144000
      7 C7          0.1250   -0.0470   -1.3950 cg        1 NXV     -0.062000
      8 C8         -0.2690    0.0350   -2.5250 c1        1 NXV     -0.192100
      9 C9         -0.7240    0.1320   -3.8760 c3        1 NXV      0.014700
     10 S10        -0.7750   -0.0550    3.7450 s4        1 NXV     -0.490000
     11 C11        -2.4730    0.2090    3.1270 c3        1 NXV      0.011200
     12 C12        -3.3810    0.3130    4.2700 ca        1 NXV      0.036700
     13 C13        -3.5490    1.5360    4.9450 ca        1 NXV     -0.144000
     14 C14        -4.4170    1.6430    6.0240 ca        1 NXV     -0.110000
     15 C15        -5.1450    0.5280    6.4540 ca        1 NXV     -0.019600
     16 C16        -4.9820   -0.6970    5.7950 ca        1 NXV      0.035400
     17 C17        -4.1060   -0.8040    4.7140 ca        1 NXV     -0.145000
     18 CL18       -5.8490   -2.0780    6.2920 cl        1 NXV     -0.110400
     19 CL19       -6.2130    0.6920    7.7710 cl        1 NXV     -0.114400
     20 C20         1.8500   -0.4180    4.0080 c         1 NXV      0.735200
     21 O21         0.8240   -0.3000    4.8080 os        1 NXV     -0.368900
     22 O22         3.0090   -0.5820    4.4420 o         1 NXV     -0.738500
     23 C23        -2.2460    0.2170   -3.9420 c3        1 NXV      0.131400
     24 O24        -2.5920    0.3090   -5.3170 oh        1 NXV     -0.610800
     25 H2          2.6600   -0.4130   -0.6390 ha        1 NXV      0.119000
     26 H3          3.4620   -0.5830    1.7380 ha        1 NXV      0.143000
     27 H6         -1.4000    0.1070    0.7730 ha        1 NXV      0.129000
     28 H9         -0.2840    1.0420   -4.3700 hc        1 NXV      0.061700
     29 H9A        -0.3810   -0.7630   -4.4670 hc        1 NXV      0.061700
     30 H11        -2.4850    1.1460    2.5230 h1        1 NXV      0.047200
     31 H11A       -2.7520   -0.6420    2.4640 h1        1 NXV      0.047200
     32 H13        -2.9710    2.4130    4.6170 ha        1 NXV      0.142000
     33 H14        -4.5320    2.6040    6.5450 ha        1 NXV      0.135000
     34 H17        -3.9730   -1.7710    4.2060 ha        1 NXV      0.149000
     35 H23        -2.7120   -0.6990   -3.4910 h1        1 NXV      0.030700
     36 H23A       -2.6140    1.1250   -3.3930 h1        1 NXV      0.030700
     37 HO24       -3.5530    0.3620   -5.3510 ho        1 NXV      0.396000
@<TRIPOS>BOND
     1    1    2 ar  
     2    1    6 ar  
     3    1    7 1   
     4    2    3 ar  
     5    2   25 1   
     6    3    4 ar  
     7    3   26 1   
     8    4    5 ar  
     9    4   20 1   
    10    5    6 ar  
    11    5   10 1   
    12    6   27 1   
    13    7    8 3   
    14    8    9 1   
    15    9   23 1   
    16    9   28 1   
    17    9   29 1   
    18   10   11 1   
    19   10   21 1   
    20   11   12 1   
    21   11   30 1   
    22   11   31 1   
    23   12   13 ar  
    24   12   17 ar  
    25   13   14 ar  
    26   13   32 1   
    27   14   15 ar  
    28   14   33 1   
    29   15   16 ar  
    30   15   19 1   
    31   16   17 ar  
    32   16   18 1   
    33   17   34 1   
    34   20   21 1   
    35   20   22 2   
    36   23   24 1   
    37   23   35 1   
    38   23   36 1   
    39   24   37 1   
@<TRIPOS>SUBSTRUCTURE
     1 NXV         1 TEMP              0 ****  ****    0 ROOT
