@<TRIPOS>MOLECULE
NXW
   60    62     1     0     0
SMALL
bcc


@<TRIPOS>ATOM
      1 C1           3.5100     0.0010     1.2150 cg         1 NXW      -0.191000
      2 C2           4.6840     0.0170     1.2320 ch         1 NXW      -0.085000
      3 C3           0.0000     0.0000     0.0000 ca         1 NXW      -0.115000
      4 C4           1.3790     0.0000     0.0000 ca         1 NXW      -0.110000
      5 C5           6.5480    -1.3460     1.2250 ca         1 NXW      -0.195000
      6 C6           8.2110    -1.6070     1.6750 ca         1 NXW      -0.049000
      7 C7           9.0990     5.5300     4.8740 ca         1 NXW      -0.037000
      8 C8          -0.6960     0.0050     1.1950 ca         1 NXW      -0.149000
      9 C9           9.3220     6.7650     5.8220 ca         1 NXW      -0.142000
     10 C10          1.3740     0.0000     2.4170 ca         1 NXW      -0.069000
     11 C11          6.6140     0.7430     2.3610 ca         1 NXW      -0.140000
     12 C12          8.9140     4.2560     6.5720 ca         1 NXW      -0.080000
     13 C13          2.0780     0.0000     1.2110 ca         1 NXW       0.114000
     14 C14          6.1220    -0.0570     1.7610 ca         1 NXW       0.075000
     15 C15          8.7330    -0.8500     2.2630 ca         1 NXW      -0.037600
     16 C16          8.9010     4.3200     5.2080 ca         1 NXW      -0.059300
     17 C17         -0.0120     0.0060     2.4050 ca         1 NXW      -0.085400
     18 C18          7.9410     0.5580     2.7330 ca         1 NXW       0.171900
     19 C19          9.3000     6.5090     7.0750 ca         1 NXW       0.039400
     20 C20          9.1360     5.4740     7.6020 ca         1 NXW      -0.120600
     21 C21         10.0630    -1.1550     2.5830 c          1 NXW       0.882200
     22 C22         -0.2440    -0.6690     4.6750 c          1 NXW       0.542100
     23 C23         -0.2930    -3.8240    11.3380 c3         1 NXW       0.201100
     24 C24          7.9570     3.0200     4.5190 c3         1 NXW       0.123000
     25 C25         -1.0580    -0.7560     5.9400 c3         1 NXW       0.075800
     26 C26         -0.2670    -2.6520     8.8570 c3         1 NXW       0.159800
     27 C27         -1.2740    -1.8960     8.0990 c3         1 NXW       0.125800
     28 N28         -0.7220     0.0050     3.6110 ns         1 NXW      -0.043100
     29 N29         -1.1770    -2.9420    10.2020 n7         1 NXW      -0.672200
     30 N30         -0.3220    -1.5390     6.9420 n7         1 NXW      -0.595200
     31 O31         10.9710    -0.5370     3.5530 o          1 NXW      -0.847800
     32 O32          0.8430    -1.2060     4.6130 o          1 NXW      -0.602100
     33 O33         10.4880    -2.3140     2.3080 o          1 NXW      -0.847800
     34 S34          8.9530     1.4510     4.0180 ss         1 NXW      -0.219000
     35 Cl35         9.4440     7.7780     8.3010 cl         1 NXW      -0.111400
     36 Cl36         8.6760     5.0930     9.1010 cl         1 NXW       0.056600
     37 H3          -0.5420    -0.0120    -0.9380 ha         1 NXW       0.098000
     38 H4           1.7860    -0.0320    -1.0030 ha         1 NXW       0.109000
     39 H5           6.2280    -1.5220     0.2050 ha         1 NXW       0.110000
     40 H6           8.3040    -2.6090     1.2730 ha         1 NXW       0.136000
     41 H8          -1.7620     0.0450     1.0030 ha         1 NXW       0.103000
     42 H10          1.9020     0.3790     3.2830 ha         1 NXW       0.133000
     43 H11          6.0690     1.5120     2.8940 ha         1 NXW       0.107000
     44 H12          8.6960     3.3080     7.0490 ha         1 NXW       0.108000
     45 H23          0.6000    -3.2730    11.6080 h1         1 NXW      -0.002967
     46 H23A        -0.8980    -3.9830    12.2220 h1         1 NXW      -0.002967
     47 H23B        -0.0130    -4.7800    10.9150 h1         1 NXW      -0.002967
     48 H24          7.6520     2.4150     5.3640 h1         1 NXW       0.031700
     49 H24A         7.0580     3.4930     4.1430 h1         1 NXW       0.031700
     50 H25         -1.9650    -1.3150     5.7480 h1         1 NXW       0.015700
     51 H25A        -1.3120     0.2420     6.2750 h1         1 NXW       0.015700
     52 H26          0.6000    -2.0440     9.0850 h1         1 NXW       0.032200
     53 H26A         0.0030    -3.5720     8.3530 h1         1 NXW       0.032200
     54 H27         -2.0940    -2.5250     7.7720 h1         1 NXW       0.024700
     55 H27A        -1.6110    -1.0170     8.6350 h1         1 NXW       0.024700
     56 HN28        -1.4940     0.6280     3.7370 hn         1 NXW       0.160500
     57 HN29        -1.4640    -2.0720    10.6050 hn         1 NXW       0.260800
     58 HN30         0.0230    -2.3790     6.5220 hn         1 NXW       0.289800
     59 H7           9.1540     5.7390     3.8120 ha         1 NXW       0.089000
     60 H9           9.1270     7.7810     5.5010 ha         1 NXW       0.126000
@<TRIPOS>BOND
     1     1     2 3   
     2     1    13 1   
     3     2    14 1   
     4     3     4 ar  
     5     3     8 ar  
     6     3    37 1   
     7     4    13 ar  
     8     4    38 1   
     9     5     6 ar  
    10     5    14 ar  
    11     5    39 1   
    12     6    15 ar  
    13     6    40 1   
    14     7     9 ar  
    15     7    16 ar  
    16     7    59 1   
    17     8    17 ar  
    18     8    41 1   
    19     9    19 ar  
    20     9    60 1   
    21    10    13 ar  
    22    10    17 ar  
    23    10    42 1   
    24    11    14 ar  
    25    11    18 ar  
    26    11    43 1   
    27    12    16 ar  
    28    12    20 ar  
    29    12    44 1   
    30    15    18 ar  
    31    15    21 1   
    32    16    24 1   
    33    17    28 1   
    34    18    34 1   
    35    19    20 ar  
    36    19    35 1   
    37    20    36 1   
    38    21    31 1   
    39    21    33 1   
    40    22    25 1   
    41    22    28 1   
    42    22    32 2   
    43    23    29 1   
    44    23    45 1   
    45    23    46 1   
    46    23    47 1   
    47    24    34 1   
    48    24    48 1   
    49    24    49 1   
    50    25    30 1   
    51    25    50 1   
    52    25    51 1   
    53    26    27 1   
    54    26    29 1   
    55    26    52 1   
    56    26    53 1   
    57    27    30 1   
    58    27    54 1   
    59    27    55 1   
    60    28    56 1   
    61    29    57 1   
    62    30    58 1   
@<TRIPOS>SUBSTRUCTURE
     1 NXW         1 TEMP              0 ****  ****    0 ROOT
