@<TRIPOS>MOLECULE
NXY
   25    27     1     0     0
SMALL
bcc


@<TRIPOS>ATOM
      1 C1         -0.1540    0.0010    0.1450 cc        1 NXY      0.133500
      2 C2          1.2460    0.0550    0.0580 cd        1 NXY     -0.230700
      3 S3         -0.9240    0.0190   -1.3330 s4        1 NXY     -0.482000
      4 C4         -0.5780   -0.0570    1.5100 cc        1 NXY     -0.150000
      5 S5          1.9590    0.0330    1.5570 ss        1 NXY      0.036200
      6 C6          1.7710    0.1190   -1.3270 c         1 NXY      0.771200
      7 C7         -2.6690   -0.0430   -0.7830 c3        1 NXY      0.017200
      8 C8          0.4990   -0.0440    2.3700 cd        1 NXY     -0.195100
      9 O9          0.8190    0.1100   -2.2220 os        1 NXY     -0.369900
     10 O10         2.9780    0.1770   -1.6420 o         1 NXY     -0.752500
     11 C11        -3.5440   -0.0320   -1.9540 ca        1 NXY      0.038700
     12 C12        -4.0520   -1.2300   -2.4820 ca        1 NXY     -0.146000
     13 C13        -3.8970    1.1790   -2.5760 ca        1 NXY     -0.145000
     14 C14        -4.8970   -1.2140   -3.5930 ca        1 NXY      0.035400
     15 C15        -4.7340    1.1970   -3.6830 ca        1 NXY     -0.110000
     16 C16        -5.2460    0.0000   -4.1970 ca        1 NXY     -0.021600
     17 CL17       -5.4980   -2.6930   -4.1920 cl        1 NXY     -0.112400
     18 CL18       -6.2830    0.0530   -5.5480 cl        1 NXY     -0.116400
     19 H4         -1.6270   -0.1040    1.8060 ha        1 NXY      0.138000
     20 H7         -2.8590    0.8420   -0.1330 h1        1 NXY      0.046200
     21 H7A        -2.8160   -0.9640   -0.1720 h1        1 NXY      0.046200
     22 H8          0.4340   -0.0810    3.4550 h4        1 NXY      0.144000
     23 H12        -3.7700   -2.1870   -2.0180 ha        1 NXY      0.149000
     24 H13        -3.4890    2.1220   -2.1820 ha        1 NXY      0.142000
     25 H15        -4.9950    2.1520   -4.1620 ha        1 NXY      0.134000
@<TRIPOS>BOND
     1    1    2 2   
     2    1    3 1   
     3    1    4 1   
     4    2    5 1   
     5    2    6 1   
     6    3    7 1   
     7    3    9 1   
     8    4    8 2   
     9    4   19 1   
    10    5    8 1   
    11    6    9 1   
    12    6   10 2   
    13    7   11 1   
    14    7   20 1   
    15    7   21 1   
    16    8   22 1   
    17   11   12 ar  
    18   11   13 ar  
    19   12   14 ar  
    20   12   23 1   
    21   13   15 ar  
    22   13   24 1   
    23   14   16 ar  
    24   14   17 1   
    25   15   16 ar  
    26   15   25 1   
    27   16   18 1   
@<TRIPOS>SUBSTRUCTURE
     1 NXY         1 TEMP              0 ****  ****    0 ROOT
