@<TRIPOS>MOLECULE
molecule
   25    26     1     0     0
SMALL
bcc


@<TRIPOS>ATOM
      1 C1           0.0000     0.0000     0.0000 cc         1 NXY      -0.039100
      2 C2           1.3770     0.0000     0.0000 cd         1 NXY       0.014300
      3 S3          -0.9750     0.0000    -1.4680 ss         1 NXY      -0.102000
      4 C4          -0.5380    -0.0050     1.2740 cc         1 NXY      -0.169000
      5 S5           1.9500     0.0000     1.6620 ss         1 NXY      -0.069800
      6 C6           2.1970    -0.0000    -1.1490 c          1 NXY       0.890200
      7 C7          -2.6720     0.0000    -0.8310 c3         1 NXY      -0.028000
      8 C8           0.3550    -0.0100     2.2660 cd         1 NXY      -0.165100
      9 O9           1.6910     0.0000    -2.2570 o          1 NXY      -0.816800
     10 O10          3.5400    -0.0000    -1.0200 o          1 NXY      -0.816800
     11 C11         -3.6420     0.0010    -1.9850 ca         1 NXY      -0.031300
     12 C12         -4.0870    -1.1970    -2.5140 ca         1 NXY      -0.104000
     13 C13         -4.0910     1.1980    -2.5110 ca         1 NXY      -0.110000
     14 C14         -4.9760    -1.1980    -3.5730 ca         1 NXY       0.032400
     15 C15         -4.9790     1.1990    -3.5690 ca         1 NXY      -0.116000
     16 C16         -5.4210     0.0020    -4.1020 ca         1 NXY       0.021400
     17 Cl17        -5.5350    -2.7010    -4.2370 cl         1 NXY      -0.104400
     18 Cl18        -6.5380     0.0030    -5.4320 cl         1 NXY      -0.112400
     19 H4          -1.6060    -0.0080     1.4540 ha         1 NXY       0.118000
     20 H7          -2.8310     0.8850    -0.2260 h1         1 NXY       0.060200
     21 H7A         -2.8310    -0.8840    -0.2260 h1         1 NXY       0.060200
     22 H8           0.1000    -0.0140     3.3190 h4         1 NXY       0.144000
     23 H12         -3.7380    -2.1350    -2.0990 ha         1 NXY       0.157000
     24 H13         -3.7450     2.1360    -2.0940 ha         1 NXY       0.147000
     25 H15         -5.3290     2.1380    -3.9810 ha         1 NXY       0.142000
@<TRIPOS>BOND
     1     4     1 1
     2     1     2 2
     3     1     3 1
     4     5     2 1
     5     2     6 1
     6     7     3 1
     7     8     4 2
     8     4    19 1
     9     8     5 1
    10     6     9 1
    11     6    10 1
    12     7    11 1
    13     7    20 1
    14     7    21 1
    15     8    22 1
    16    11    12 ar
    17    11    13 ar
    18    12    14 ar
    19    12    23 1
    20    13    15 ar
    21    13    24 1
    22    17    14 1
    23    14    16 ar
    24    15    16 ar
    25    15    25 1
    26    16    18 1
@<TRIPOS>SUBSTRUCTURE
     1 NXY         1 TEMP              0 ****  ****    0 ROOT
